version 2
run Ping2-0-20160812-12:22:46-5571
attr configname Ping2
attr datetime 20160812-12:22:46
attr experiment Ping2
attr inifile omnetpp.ini
attr iterationvars ""
attr iterationvars2 $repetition=0
attr measurement ""
attr network Net80211test
attr processid 5571
attr repetition 0
attr replication #0
attr resultdir results
attr runnumber 0
attr seedset 0
param **.constraintAreaMaxX 600m
param **.constraintAreaMaxY 400m
param **.constraintAreaMaxZ 0m
param **.constraintAreaMinX 0m
param **.constraintAreaMinY 0m
param **.constraintAreaMinZ 0m
param **.host*.mobility.changeAngleBy "normal(0deg, 30deg)"
param **.host*.mobility.changeInterval "truncnormal(2s, 0.5s)"
param **.host*.mobility.initFromDisplayString false
param **.host*.mobility.speed "truncnormal(20mps, 8mps)"
param **.host*.mobility.updateInterval 100ms
param **.host*.mobilityType "\"MassMobility\""
param **.pingApp[*].printPing true
param **.pingApp[0].startTime uniform(1s,5s)
param **.pingApp[1].startTime 5s+uniform(1s,5s)
param **.wlan[*].bitrate 2Mbps
param **.wlan[*].mac.address "\"auto\""
param **.wlan[*].mac.cwMinBroadcast 31
param **.wlan[*].mac.cwMinData 7
param **.wlan[*].mac.maxQueueSize 14
param **.wlan[*].mac.retryLimit 7
param **.wlan[*].mac.rtsThresholdBytes 3000B
param **.wlan[*].mgmt.frameCapacity 10
param **.wlan[*].radio.receiver.sensitivity -85dBm
param **.wlan[*].radio.receiver.snirThreshold 4dB
param **.wlan[*].radio.transmitter.power 2mW
param *.host[*].numPingApps 2
param *.host[*].pingApp[*].destAddr "\"host[0]\""
param *.host[0].numPingApps 0

vector 28  Net80211test.host[0].wlan[0].mac.ctn[0]  state:vector  ETV
attr interpolationmode  none
attr source  stateChanged
attr title  "contention state, vector"
vector 52  Net80211test.host[1].wlan[0].mac.ctn[0]  state:vector  ETV
attr interpolationmode  none
attr source  stateChanged
attr title  "contention state, vector"
vector 76  Net80211test.host[2].wlan[0].mac.ctn[0]  state:vector  ETV
attr interpolationmode  none
attr source  stateChanged
attr title  "contention state, vector"
vector 100  Net80211test.host[3].wlan[0].mac.ctn[0]  state:vector  ETV
attr interpolationmode  none
attr source  stateChanged
attr title  "contention state, vector"
vector 124  Net80211test.host[4].wlan[0].mac.ctn[0]  state:vector  ETV
attr interpolationmode  none
attr source  stateChanged
attr title  "contention state, vector"
vector 0  Net80211test.host[0]  coordX:vector  ETV
attr interpolationmode  linear
attr source  xCoord(mobilityPos(mobilityStateChanged))
attr title  "coord X, vector"
vector 1  Net80211test.host[0]  coordY:vector  ETV
attr interpolationmode  linear
attr source  yCoord(mobilityPos(mobilityStateChanged))
attr title  "coord Y, vector"
vector 2  Net80211test.host[0]  coordZ:vector  ETV
attr interpolationmode  linear
attr source  zCoord(mobilityPos(mobilityStateChanged))
attr title  "coord Z, vector"
vector 3  Net80211test.host[1]  coordX:vector  ETV
attr interpolationmode  linear
attr source  xCoord(mobilityPos(mobilityStateChanged))
attr title  "coord X, vector"
vector 4  Net80211test.host[1]  coordY:vector  ETV
attr interpolationmode  linear
attr source  yCoord(mobilityPos(mobilityStateChanged))
attr title  "coord Y, vector"
vector 5  Net80211test.host[1]  coordZ:vector  ETV
attr interpolationmode  linear
attr source  zCoord(mobilityPos(mobilityStateChanged))
attr title  "coord Z, vector"
vector 6  Net80211test.host[2]  coordX:vector  ETV
attr interpolationmode  linear
attr source  xCoord(mobilityPos(mobilityStateChanged))
attr title  "coord X, vector"
vector 7  Net80211test.host[2]  coordY:vector  ETV
attr interpolationmode  linear
attr source  yCoord(mobilityPos(mobilityStateChanged))
attr title  "coord Y, vector"
vector 8  Net80211test.host[2]  coordZ:vector  ETV
attr interpolationmode  linear
attr source  zCoord(mobilityPos(mobilityStateChanged))
attr title  "coord Z, vector"
vector 9  Net80211test.host[3]  coordX:vector  ETV
attr interpolationmode  linear
attr source  xCoord(mobilityPos(mobilityStateChanged))
attr title  "coord X, vector"
vector 10  Net80211test.host[3]  coordY:vector  ETV
attr interpolationmode  linear
attr source  yCoord(mobilityPos(mobilityStateChanged))
attr title  "coord Y, vector"
vector 11  Net80211test.host[3]  coordZ:vector  ETV
attr interpolationmode  linear
attr source  zCoord(mobilityPos(mobilityStateChanged))
attr title  "coord Z, vector"
vector 12  Net80211test.host[4]  coordX:vector  ETV
attr interpolationmode  linear
attr source  xCoord(mobilityPos(mobilityStateChanged))
attr title  "coord X, vector"
vector 13  Net80211test.host[4]  coordY:vector  ETV
attr interpolationmode  linear
attr source  yCoord(mobilityPos(mobilityStateChanged))
attr title  "coord Y, vector"
vector 14  Net80211test.host[4]  coordZ:vector  ETV
attr interpolationmode  linear
attr source  zCoord(mobilityPos(mobilityStateChanged))
attr title  "coord Z, vector"
vector 24  Net80211test.host[0].wlan[0].radio  radioMode:vector  ETV
attr interpolationmode  sample-hold
attr source  radioModeChanged
attr title  "Radio mode, vector"
vector 27  Net80211test.host[0].wlan[0].radio  radioChannel:vector  ETV
attr interpolationmode  sample-hold
attr source  radioChannelChanged
attr title  "Radio channel, vector"
vector 48  Net80211test.host[1].wlan[0].radio  radioMode:vector  ETV
attr interpolationmode  sample-hold
attr source  radioModeChanged
attr title  "Radio mode, vector"
vector 51  Net80211test.host[1].wlan[0].radio  radioChannel:vector  ETV
attr interpolationmode  sample-hold
attr source  radioChannelChanged
attr title  "Radio channel, vector"
vector 72  Net80211test.host[2].wlan[0].radio  radioMode:vector  ETV
attr interpolationmode  sample-hold
attr source  radioModeChanged
attr title  "Radio mode, vector"
vector 75  Net80211test.host[2].wlan[0].radio  radioChannel:vector  ETV
attr interpolationmode  sample-hold
attr source  radioChannelChanged
attr title  "Radio channel, vector"
vector 96  Net80211test.host[3].wlan[0].radio  radioMode:vector  ETV
attr interpolationmode  sample-hold
attr source  radioModeChanged
attr title  "Radio mode, vector"
vector 99  Net80211test.host[3].wlan[0].radio  radioChannel:vector  ETV
attr interpolationmode  sample-hold
attr source  radioChannelChanged
attr title  "Radio channel, vector"
vector 120  Net80211test.host[4].wlan[0].radio  radioMode:vector  ETV
attr interpolationmode  sample-hold
attr source  radioModeChanged
attr title  "Radio mode, vector"
vector 123  Net80211test.host[4].wlan[0].radio  radioChannel:vector  ETV
attr interpolationmode  sample-hold
attr source  radioChannelChanged
attr title  "Radio channel, vector"
vector 25  Net80211test.host[0].wlan[0].radio  receptionState:vector  ETV
attr interpolationmode  sample-hold
attr source  receptionStateChanged
attr title  "Radio reception state, vector"
vector 49  Net80211test.host[1].wlan[0].radio  receptionState:vector  ETV
attr interpolationmode  sample-hold
attr source  receptionStateChanged
attr title  "Radio reception state, vector"
vector 73  Net80211test.host[2].wlan[0].radio  receptionState:vector  ETV
attr interpolationmode  sample-hold
attr source  receptionStateChanged
attr title  "Radio reception state, vector"
vector 97  Net80211test.host[3].wlan[0].radio  receptionState:vector  ETV
attr interpolationmode  sample-hold
attr source  receptionStateChanged
attr title  "Radio reception state, vector"
vector 121  Net80211test.host[4].wlan[0].radio  receptionState:vector  ETV
attr interpolationmode  sample-hold
attr source  receptionStateChanged
attr title  "Radio reception state, vector"
vector 104  Net80211test.host[4].pingApp[0]  pingTxSeq:vector  ETV
attr interpolationmode  none
attr title  "ping tx seq, vector"
vector 111  Net80211test.host[4].networkLayer.arp  sentReq:vector  ETV
attr title  "ARP request sent, vector"
vector 118  Net80211test.host[4].wlan[0].mac  rcvdPkFromHL:vector(packetBytes)  ETV
attr interpolationmode  none
attr source  packetReceivedFromUpper
attr title  "packets received from higher layer, vector(packetBytes)"
vector 117  Net80211test.host[4].wlan[0].mac  sentDownPk:vector(packetBytes)  ETV
attr interpolationmode  none
attr source  packetSentToLower
attr title  "packets sent to lower layer, vector(packetBytes)"
vector 122  Net80211test.host[4].wlan[0].radio  transmissionState:vector  ETV
attr interpolationmode  sample-hold
attr source  transmissionStateChanged
attr title  "Radio transmission state, vector"
vector 23  Net80211test.host[0].wlan[0].mac  rcvdPkFromLL:vector(packetBytes)  ETV
attr interpolationmode  none
attr source  packetReceivedFromLower
attr title  "packets received from lower layer, vector(packetBytes)"
vector 20  Net80211test.host[0].wlan[0].mac  passedUpPk:vector(packetBytes)  ETV
attr interpolationmode  none
attr source  packetSentToUpper
attr title  "packets passed to higher layer, vector(packetBytes)"
vector 16  Net80211test.host[0].networkLayer.arp  sentReply:vector  ETV
attr title  "ARP replies sent, vector"
vector 22  Net80211test.host[0].wlan[0].mac  rcvdPkFromHL:vector(packetBytes)  ETV
attr interpolationmode  none
attr source  packetReceivedFromUpper
attr title  "packets received from higher layer, vector(packetBytes)"
vector 21  Net80211test.host[0].wlan[0].mac  sentDownPk:vector(packetBytes)  ETV
attr interpolationmode  none
attr source  packetSentToLower
attr title  "packets sent to lower layer, vector(packetBytes)"
vector 26  Net80211test.host[0].wlan[0].radio  transmissionState:vector  ETV
attr interpolationmode  sample-hold
attr source  transmissionStateChanged
attr title  "Radio transmission state, vector"
vector 119  Net80211test.host[4].wlan[0].mac  rcvdPkFromLL:vector(packetBytes)  ETV
attr interpolationmode  none
attr source  packetReceivedFromLower
attr title  "packets received from lower layer, vector(packetBytes)"
vector 116  Net80211test.host[4].wlan[0].mac  passedUpPk:vector(packetBytes)  ETV
attr interpolationmode  none
attr source  packetSentToUpper
attr title  "packets passed to higher layer, vector(packetBytes)"
vector 105  Net80211test.host[4].pingApp[0]  pingRxSeq:vector  ETV
attr interpolationmode  none
attr title  "ping rx seq, vector"
vector 101  Net80211test.host[4].pingApp[0]  rtt:vector  ETV
attr interpolationmode  none
attr title  "ping round-trip time, vector"
attr unit  s
vector 32  Net80211test.host[1].pingApp[0]  pingTxSeq:vector  ETV
attr interpolationmode  none
attr title  "ping tx seq, vector"
vector 39  Net80211test.host[1].networkLayer.arp  sentReq:vector  ETV
attr title  "ARP request sent, vector"
vector 46  Net80211test.host[1].wlan[0].mac  rcvdPkFromHL:vector(packetBytes)  ETV
attr interpolationmode  none
attr source  packetReceivedFromUpper
attr title  "packets received from higher layer, vector(packetBytes)"
vector 45  Net80211test.host[1].wlan[0].mac  sentDownPk:vector(packetBytes)  ETV
attr interpolationmode  none
attr source  packetSentToLower
attr title  "packets sent to lower layer, vector(packetBytes)"
vector 50  Net80211test.host[1].wlan[0].radio  transmissionState:vector  ETV
attr interpolationmode  sample-hold
attr source  transmissionStateChanged
attr title  "Radio transmission state, vector"
vector 95  Net80211test.host[3].wlan[0].mac  rcvdPkFromLL:vector(packetBytes)  ETV
attr interpolationmode  none
attr source  packetReceivedFromLower
attr title  "packets received from lower layer, vector(packetBytes)"
vector 92  Net80211test.host[3].wlan[0].mac  passedUpPk:vector(packetBytes)  ETV
attr interpolationmode  none
attr source  packetSentToUpper
attr title  "packets passed to higher layer, vector(packetBytes)"
vector 71  Net80211test.host[2].wlan[0].mac  rcvdPkFromLL:vector(packetBytes)  ETV
attr interpolationmode  none
attr source  packetReceivedFromLower
attr title  "packets received from lower layer, vector(packetBytes)"
vector 68  Net80211test.host[2].wlan[0].mac  passedUpPk:vector(packetBytes)  ETV
attr interpolationmode  none
attr source  packetSentToUpper
attr title  "packets passed to higher layer, vector(packetBytes)"
vector 80  Net80211test.host[3].pingApp[0]  pingTxSeq:vector  ETV
attr interpolationmode  none
attr title  "ping tx seq, vector"
vector 87  Net80211test.host[3].networkLayer.arp  sentReq:vector  ETV
attr title  "ARP request sent, vector"
vector 94  Net80211test.host[3].wlan[0].mac  rcvdPkFromHL:vector(packetBytes)  ETV
attr interpolationmode  none
attr source  packetReceivedFromUpper
attr title  "packets received from higher layer, vector(packetBytes)"
vector 93  Net80211test.host[3].wlan[0].mac  sentDownPk:vector(packetBytes)  ETV
attr interpolationmode  none
attr source  packetSentToLower
attr title  "packets sent to lower layer, vector(packetBytes)"
vector 98  Net80211test.host[3].wlan[0].radio  transmissionState:vector  ETV
attr interpolationmode  sample-hold
attr source  transmissionStateChanged
attr title  "Radio transmission state, vector"
vector 47  Net80211test.host[1].wlan[0].mac  rcvdPkFromLL:vector(packetBytes)  ETV
attr interpolationmode  none
attr source  packetReceivedFromLower
attr title  "packets received from lower layer, vector(packetBytes)"
vector 44  Net80211test.host[1].wlan[0].mac  passedUpPk:vector(packetBytes)  ETV
attr interpolationmode  none
attr source  packetSentToUpper
attr title  "packets passed to higher layer, vector(packetBytes)"
vector 56  Net80211test.host[2].pingApp[0]  pingTxSeq:vector  ETV
attr interpolationmode  none
attr title  "ping tx seq, vector"
vector 63  Net80211test.host[2].networkLayer.arp  sentReq:vector  ETV
attr title  "ARP request sent, vector"
vector 70  Net80211test.host[2].wlan[0].mac  rcvdPkFromHL:vector(packetBytes)  ETV
attr interpolationmode  none
attr source  packetReceivedFromUpper
attr title  "packets received from higher layer, vector(packetBytes)"
vector 69  Net80211test.host[2].wlan[0].mac  sentDownPk:vector(packetBytes)  ETV
attr interpolationmode  none
attr source  packetSentToLower
attr title  "packets sent to lower layer, vector(packetBytes)"
vector 74  Net80211test.host[2].wlan[0].radio  transmissionState:vector  ETV
attr interpolationmode  sample-hold
attr source  transmissionStateChanged
attr title  "Radio transmission state, vector"
0	0	0	250.21319906227
0	11	0.1	251.41487097287
0	16	0.2	252.61654288347
0	21	0.3	253.81821479407
0	26	0.4	255.01988670467
0	31	0.5	256.22155861526
0	36	0.6	257.42323052586
0	41	0.7	258.62490243646
0	46	0.8	259.82657434706
0	51	0.9	261.02824625766
0	61	1	262.22991816825
0	66	1.1	263.43159007885
0	71	1.2	264.63326198945
0	77	1.248801457852	265.21969540042
0	82	1.348801457852	266.82045138089
0	88	1.448801457852	268.42120736136
0	93	1.548801457852	270.02196334184
0	98	1.648801457852	271.62271932231
0	103	1.748801457852	273.22347530278
0	109	1.848801457852	274.82423128325
0	114	1.948801457852	276.42498726372
0	124	2.048801457852	278.02574324419
0	129	2.148801457852	279.62649922467
0	134	2.248801457852	281.22725520514
0	139	2.348801457852	282.82801118561
0	144	2.448801457852	284.42876716608
0	149	2.548801457852	286.02952314655
0	154	2.648801457852	287.63027912702
0	159	2.748801457852	289.2310351075
0	161	2.757560281494	289.37124250076
0	166	2.857560281494	290.49773204052
0	171	2.957560281494	291.62422158028
0	181	3.057560281494	292.75071112004
0	186	3.157560281494	293.8772006598
0	196	3.179532709531	294.12471776327
0	203	3.179582812382	294.12528216665
0	217	3.179692812382	294.12652130514
0	223	3.180140812382	294.13156797828
0	236	3.180150915235	294.13168178586
0	245	3.180455018092	294.13510747274
0	253	3.180604915235	294.13679604837
0	260	3.181277018097	294.14436721681
0	273	3.181287018097	294.14447986576
0	281	3.181591018097	294.14790439396
0	290	3.181681018097	294.14891823455
0	296	3.182353018097	294.15648824426
0	308	3.182363120969	294.15660205205
0	317	3.182667223848	294.16002773918
0	339	3.195254009217	294.30181655975
0	343	3.195255342617	294.30183158036
0	357	3.195305342617	294.30239482513
0	362	3.257560281494	295.00369019956
0	368	3.357560281494	296.13017973932
0	380	3.411053481512	296.73277504201
0	384	3.411054725629	296.73278905686
0	398	3.411104725629	296.73335230163
0	402	3.457560281494	297.25666927908
0	407	3.557560281494	298.38315881884
0	412	3.657560281494	299.5096483586
0	417	3.757560281494	300.63613789836
0	422	3.857560281494	301.76262743812
0	432	3.860757459886	301.79864331828
0	435	3.860758474467	301.79865474743
0	449	3.860808474467	301.7992179922
0	456	3.957560281494	302.88911697788
0	466	4.057560281494	304.01560651764
0	471	4.157560281494	305.1420960574
0	481	4.179532709531	305.38961316087
0	488	4.180204780192	305.39718396657
0	501	4.180214780192	305.39729661552
0	509	4.180518780192	305.40072114372
0	518	4.180568780192	305.40128438849
0	524	4.181240780192	305.4088543982
0	536	4.181250850834	305.40896784293
0	545	4.181554921463	305.41239316676
0	565	4.195254009217	305.56671195735
0	568	4.195255369805	305.56672728423
0	582	4.195305369805	305.567290529
0	587	4.257560281494	306.26858559716
0	592	4.357560281494	307.39507513692
0	606	4.411053481512	307.99767043961
0	609	4.411054806448	307.99768536487
0	623	4.411104806448	307.99824860964
0	627	4.457560281494	308.52156467668
0	632	4.557560281494	309.64805421644
0	637	4.657560281494	310.7745437562
0	642	4.757560281494	311.90103329596
0	647	4.857560281494	313.02752283572
0	658	4.860757459886	313.06353871588
0	661	4.860758424281	313.06354957968
0	675	4.860808424281	313.06411282445
0	682	4.957560281494	314.15401237548
0	683	4.966599573606	314.25583905559
0	693	5.066599573606	315.85117170234
0	698	5.166599573606	317.44650434909
0	708	5.179532709531	317.65283088874
0	715	5.180204794177	317.66355287452
0	728	5.180214794177	317.66371240778
0	736	5.180518794177	317.66856221903
0	745	5.180708794177	317.67159335106
0	751	5.181380794177	317.68231398644
0	763	5.181390878865	317.68247487076
0	772	5.181694963577	317.68732603345
0	792	5.195254009217	317.90363791513
0	795	5.195255426301	317.90366052233
0	809	5.195305426301	317.90445818866
0	814	5.266599573606	319.04183699583
0	819	5.366599573606	320.63716964258
0	833	5.411053481512	321.34635734816
0	836	5.411054865126	321.3463794214
0	850	5.411104865126	321.34717708773
0	854	5.466599573606	322.23250228932
0	859	5.566599573606	323.82783493607
0	865	5.666599573606	325.42316758282
0	870	5.766599573606	327.01850022956
0	885	5.860757459886	328.52063172887
0	888	5.860758385657	328.520646498
0	902	5.860808385657	328.52144416432
0	904	5.866599573606	328.61383287631
0	911	5.966599573606	330.20916552305
0	922	6.066599573606	331.8044981698
0	927	6.166599573606	333.39983081655
0	936	6.179532709531	333.60615735621
0	943	6.180204817411	333.61687971264
0	956	6.180214817411	333.6170392459
0	964	6.180518817411	333.62188905715
0	973	6.180668817411	333.62428205612
0	980	6.181340817411	333.6350026915
0	992	6.181350925246	333.6351639451
0	1001	6.181655033054	333.64001547624
0	1020	6.195254009217	333.85696438259
0	1023	6.195255426874	333.85698699893
0	1037	6.195305426874	333.85778466526
0	1043	6.266599573606	334.99516346329
0	1048	6.366599573606	336.59049611004
0	1061	6.411053481512	337.29968381562
0	1064	6.411054946699	337.29970719022
0	1078	6.411104946699	337.30050485655
0	1083	6.466599573606	338.18582875678
0	1088	6.566599573606	339.78116140353
0	1093	6.666599573606	341.37649405028
0	1098	6.766599573606	342.97182669702
0	1112	6.860757459886	344.47395819633
0	1115	6.860758385632	344.47397296506
0	1129	6.860808385632	344.47477063139
0	1133	6.866599573606	344.56715934377
0	1139	6.966599573606	346.16249199052
0	1147	7.05889889736	347.63497323509
0	1152	7.15889889736	348.25205365003
0	1163	7.179532709531	348.3793808638
0	1170	7.18020479531	348.38352817351
0	1183	7.18021479531	348.38358988155
0	1191	7.18051879531	348.38546580601
0	1200	7.18064879531	348.38626801055
0	1207	7.18132079531	348.39041479094
0	1219	7.181330881118	348.39047702849
0	1228	7.181634966945	348.39235348257
1	0	0	398.87392325327
1	11	0.1	397.98838369486
1	16	0.2	397.10284413644
1	21	0.3	396.21730457803
1	26	0.4	395.33176501962
1	31	0.5	394.44622546121
1	36	0.6	393.5606859028
1	41	0.7	392.67514634439
1	46	0.8	391.78960678597
1	51	0.9	390.90406722756
1	61	1	390.01852766915
1	66	1.1	389.13298811074
1	71	1.2	388.24744855233
1	77	1.248801457852	387.81529233797
1	82	1.348801457852	387.25355002547
1	88	1.448801457852	386.69180771297
1	93	1.548801457852	386.13006540047
1	98	1.648801457852	385.56832308797
1	103	1.748801457852	385.00658077547
1	109	1.848801457852	384.44483846297
1	114	1.948801457852	383.88309615047
1	124	2.048801457852	383.32135383798
1	129	2.148801457852	382.75961152548
1	134	2.248801457852	382.19786921298
1	139	2.348801457852	381.63612690048
1	144	2.448801457852	381.07438458798
1	149	2.548801457852	380.51264227548
1	154	2.648801457852	379.95089996298
1	159	2.748801457852	379.38915765048
1	161	2.757560281494	379.33995563201
1	166	2.857560281494	379.13906119434
1	171	2.957560281494	378.93816675667
1	181	3.057560281494	378.737272319
1	186	3.157560281494	378.53637788132
1	196	3.179532709531	378.49223649558
1	203	3.179582812382	378.49213584174
1	217	3.179692812382	378.49191485785
1	223	3.180140812382	378.49101485077
1	236	3.180150915235	378.4909945547
1	245	3.180455018092	378.49038362898
1	253	3.180604915235	378.49008249396
1	260	3.181277018097	378.48873227669
1	273	3.181287018097	378.48871218725
1	281	3.181591018097	378.48810146816
1	290	3.181681018097	378.48792066316
1	296	3.182353018097	378.48657065254
1	308	3.182363120969	378.48655035643
1	317	3.182667223848	378.48593943067
1	339	3.195254009217	378.46065327898
1	343	3.195255342617	378.46065060025
1	357	3.195305342617	378.46055015303
1	362	3.257560281494	378.33548344365
1	368	3.357560281494	378.13458900598
1	380	3.411053481512	378.02712414261
1	384	3.411054725629	378.02712164325
1	398	3.411104725629	378.02702119603
1	402	3.457560281494	377.93369456831
1	407	3.557560281494	377.73280013064
1	412	3.657560281494	377.53190569297
1	417	3.757560281494	377.3310112553
1	422	3.857560281494	377.13011681763
1	432	3.860757459886	377.12369386407
1	435	3.860758474467	377.12369182584
1	449	3.860808474467	377.12359137862
1	456	3.957560281494	376.92922237996
1	466	4.057560281494	376.72832794228
1	471	4.157560281494	376.52743350461
1	481	4.179532709531	376.48329211887
1	488	4.180204780192	376.48194196629
1	501	4.180214780192	376.48192187685
1	509	4.180518780192	376.48131115776
1	518	4.180568780192	376.48121071054
1	524	4.181240780192	376.47986069992
1	536	4.181250850834	376.47984046856
1	545	4.181554921463	376.47922960758
1	565	4.195254009217	376.45170890227
1	568	4.195255369805	376.45170616892
1	582	4.195305369805	376.4516057217
1	587	4.257560281494	376.32653906694
1	592	4.357560281494	376.12564462927
1	606	4.411053481512	376.0181797659
1	609	4.411054806448	376.01817710418
1	623	4.411104806448	376.01807665696
1	627	4.457560281494	375.9247501916
1	632	4.557560281494	375.72385575393
1	637	4.657560281494	375.52296131626
1	642	4.757560281494	375.32206687859
1	647	4.857560281494	375.12117244092
1	658	4.860757459886	375.11474948736
1	661	4.860758424281	375.11474754995
1	675	4.860808424281	375.11464710273
1	682	4.957560281494	374.92027800324
1	683	4.966599573606	374.90211856819
1	693	5.066599573606	374.53760750657
1	698	5.166599573606	374.17309644495
1	708	5.179532709531	374.12595373389
1	715	5.180204794177	374.12350391101
1	728	5.180214794177	374.12346745991
1	736	5.180518794177	374.12235934628
1	745	5.180708794177	374.12166677526
1	751	5.181380794177	374.11921726093
1	763	5.181390878865	374.11918050113
1	772	5.181694963577	374.11807207871
1	792	5.195254009217	374.06864785751
1	795	5.195255426301	374.06864269208
1	809	5.195305426301	374.06846043655
1	814	5.266599573606	373.80858538333
1	819	5.366599573606	373.44407432172
1	833	5.411053481512	373.28203491008
1	836	5.411054865126	373.28202986665
1	850	5.411104865126	373.28184761112
1	854	5.466599573606	373.0795632601
1	859	5.566599573606	372.71505219848
1	865	5.666599573606	372.35054113686
1	870	5.766599573606	371.98603007525
1	885	5.860757459886	371.64281416437
1	888	5.860758385657	371.64281078983
1	902	5.860808385657	371.6426285343
1	904	5.866599573606	371.62151901363
1	911	5.966599573606	371.25700795201
1	922	6.066599573606	370.89249689039
1	927	6.166599573606	370.52798582878
1	936	6.179532709531	370.48084311772
1	943	6.180204817411	370.47839321015
1	956	6.180214817411	370.47835675904
1	964	6.180518817411	370.47724864541
1	973	6.180668817411	370.47670187882
1	980	6.181340817411	370.47425236449
1	992	6.181350925246	370.47421552031
1	1001	6.181655033054	370.47310701371
1	1020	6.195254009217	370.42353724133
1	1023	6.195255426874	370.42353207381
1	1037	6.195305426874	370.42334981828
1	1043	6.266599573606	370.16347476716
1	1048	6.366599573606	369.79896370554
1	1061	6.411053481512	369.6369242939
1	1064	6.411054946699	369.63691895313
1	1078	6.411104946699	369.6367366976
1	1083	6.466599573606	369.43445264392
1	1088	6.566599573606	369.06994158231
1	1093	6.666599573606	368.70543052069
1	1098	6.766599573606	368.34091945907
1	1112	6.860757459886	367.99770354819
1	1115	6.860758385632	367.99770017375
1	1129	6.860808385632	367.99751791822
1	1133	6.866599573606	367.97640839745
1	1139	6.966599573606	367.61189733584
1	1147	7.05889889736	367.27545609095
1	1152	7.15889889736	366.32165847527
1	1163	7.179532709531	366.12485366676
1	1170	7.18020479531	366.11844332863
1	1183	7.18021479531	366.11834794886
1	1191	7.18051879531	366.11544840411
1	1200	7.18064879531	366.11420846721
1	1207	7.18132079531	366.10779894723
1	1219	7.181330881118	366.10770274904
1	1228	7.181634966945	366.10480238567
2	0	0	0
2	11	0.1	0
2	16	0.2	0
2	21	0.3	0
2	26	0.4	0
2	31	0.5	0
2	36	0.6	0
2	41	0.7	0
2	46	0.8	0
2	51	0.9	0
2	61	1	0
2	66	1.1	0
2	71	1.2	0
2	77	1.248801457852	0
2	82	1.348801457852	0
2	88	1.448801457852	0
2	93	1.548801457852	0
2	98	1.648801457852	0
2	103	1.748801457852	0
2	109	1.848801457852	0
2	114	1.948801457852	0
2	124	2.048801457852	0
2	129	2.148801457852	0
2	134	2.248801457852	0
2	139	2.348801457852	0
2	144	2.448801457852	0
2	149	2.548801457852	0
2	154	2.648801457852	0
2	159	2.748801457852	0
2	161	2.757560281494	0
2	166	2.857560281494	0
2	171	2.957560281494	0
2	181	3.057560281494	0
2	186	3.157560281494	0
2	196	3.179532709531	0
2	203	3.179582812382	0
2	217	3.179692812382	0
2	223	3.180140812382	0
2	236	3.180150915235	0
2	245	3.180455018092	0
2	253	3.180604915235	0
2	260	3.181277018097	0
2	273	3.181287018097	0
2	281	3.181591018097	0
2	290	3.181681018097	0
2	296	3.182353018097	0
2	308	3.182363120969	0
2	317	3.182667223848	0
2	339	3.195254009217	0
2	343	3.195255342617	0
2	357	3.195305342617	0
2	362	3.257560281494	0
2	368	3.357560281494	0
2	380	3.411053481512	0
2	384	3.411054725629	0
2	398	3.411104725629	0
2	402	3.457560281494	0
2	407	3.557560281494	0
2	412	3.657560281494	0
2	417	3.757560281494	0
2	422	3.857560281494	0
2	432	3.860757459886	0
2	435	3.860758474467	0
2	449	3.860808474467	0
2	456	3.957560281494	0
2	466	4.057560281494	0
2	471	4.157560281494	0
2	481	4.179532709531	0
2	488	4.180204780192	0
2	501	4.180214780192	0
2	509	4.180518780192	0
2	518	4.180568780192	0
2	524	4.181240780192	0
2	536	4.181250850834	0
2	545	4.181554921463	0
2	565	4.195254009217	0
2	568	4.195255369805	0
2	582	4.195305369805	0
2	587	4.257560281494	0
2	592	4.357560281494	0
2	606	4.411053481512	0
2	609	4.411054806448	0
2	623	4.411104806448	0
2	627	4.457560281494	0
2	632	4.557560281494	0
2	637	4.657560281494	0
2	642	4.757560281494	0
2	647	4.857560281494	0
2	658	4.860757459886	0
2	661	4.860758424281	0
2	675	4.860808424281	0
2	682	4.957560281494	0
2	683	4.966599573606	0
2	693	5.066599573606	0
2	698	5.166599573606	0
2	708	5.179532709531	0
2	715	5.180204794177	0
2	728	5.180214794177	0
2	736	5.180518794177	0
2	745	5.180708794177	0
2	751	5.181380794177	0
2	763	5.181390878865	0
2	772	5.181694963577	0
2	792	5.195254009217	0
2	795	5.195255426301	0
2	809	5.195305426301	0
2	814	5.266599573606	0
2	819	5.366599573606	0
2	833	5.411053481512	0
2	836	5.411054865126	0
2	850	5.411104865126	0
2	854	5.466599573606	0
2	859	5.566599573606	0
2	865	5.666599573606	0
2	870	5.766599573606	0
2	885	5.860757459886	0
2	888	5.860758385657	0
2	902	5.860808385657	0
2	904	5.866599573606	0
2	911	5.966599573606	0
2	922	6.066599573606	0
2	927	6.166599573606	0
2	936	6.179532709531	0
2	943	6.180204817411	0
2	956	6.180214817411	0
2	964	6.180518817411	0
2	973	6.180668817411	0
2	980	6.181340817411	0
2	992	6.181350925246	0
2	1001	6.181655033054	0
2	1020	6.195254009217	0
2	1023	6.195255426874	0
2	1037	6.195305426874	0
2	1043	6.266599573606	0
2	1048	6.366599573606	0
2	1061	6.411053481512	0
2	1064	6.411054946699	0
2	1078	6.411104946699	0
2	1083	6.466599573606	0
2	1088	6.566599573606	0
2	1093	6.666599573606	0
2	1098	6.766599573606	0
2	1112	6.860757459886	0
2	1115	6.860758385632	0
2	1129	6.860808385632	0
2	1133	6.866599573606	0
2	1139	6.966599573606	0
2	1147	7.05889889736	0
2	1152	7.15889889736	0
2	1163	7.179532709531	0
2	1170	7.18020479531	0
2	1183	7.18021479531	0
2	1191	7.18051879531	0
2	1200	7.18064879531	0
2	1207	7.18132079531	0
2	1219	7.181330881118	0
2	1228	7.181634966945	0
3	0	0	0.068628648295999
3	12	0.1	3.0645996071275
3	17	0.2	6.0605705659591
3	22	0.3	9.0565415247906
3	27	0.4	12.052512483622
3	32	0.5	15.048483442454
3	37	0.6	18.044454401285
3	42	0.7	21.040425360117
3	47	0.8	24.036396318948
3	52	0.9	27.03236727778
3	62	1	30.028338236611
3	67	1.1	33.024309195443
3	72	1.2	36.020280154274
3	78	1.3	39.016251113106
3	83	1.4	42.012222071938
3	89	1.5	45.008193030769
3	94	1.6	48.004163989601
3	99	1.7	51.000134948432
3	104	1.8	53.996105907264
3	110	1.884910102378	56.539987915623
3	115	1.984910102378	57.334018666275
3	125	2.084910102378	58.128049416927
3	130	2.184910102378	58.922080167579
3	135	2.284910102378	59.716110918231
3	141	2.384910102378	60.510141668883
3	146	2.484910102378	61.304172419535
3	151	2.584910102378	62.098203170187
3	156	2.684910102378	62.892233920839
3	162	2.784910102378	63.686264671491
3	167	2.884910102378	64.480295422143
3	172	2.984910102378	65.274326172795
3	182	3.084910102378	66.068356923447
3	196	3.179532709531	66.81968952131
3	200	3.179533996465	66.819699739962
3	213	3.179583996465	66.820096755337
3	217	3.179692812382	66.82096078718
3	221	3.179694145475	66.820971372348
3	233	3.180142145475	66.824528630111
3	236	3.180150915235	66.824598264702
3	240	3.180152202193	66.824608483545
3	249	3.180456202193	66.827022337027
3	253	3.180604915235	66.82820316431
3	257	3.180606202211	66.828213383295
3	270	3.181278202211	66.83354926994
3	273	3.181287018097	66.833619270786
3	277	3.181288351221	66.8336298562
3	286	3.181592351221	66.836043709682
3	290	3.181681018097	66.836747751943
3	294	3.181682351229	66.836758337421
3	305	3.182354351229	66.842094224066
3	308	3.182363120969	66.842163858498
3	312	3.182364408014	66.842174078031
3	321	3.182668408014	66.844587931513
3	322	3.184910102378	66.862387674099
3	339	3.195254009217	66.944521475219
3	345	3.195304009217	66.944918490595
3	363	3.284910102378	67.656418424751
3	369	3.384910102378	68.450449175403
3	380	3.411053481512	68.658035644986
3	387	3.411103595495	68.658433565422
3	403	3.484910102378	69.244479926055
3	408	3.584910102378	70.038510676707
3	413	3.684910102378	70.832541427359
3	418	3.784910102378	71.626572178011
3	432	3.860757459886	72.228823520181
3	444	3.860807857019	72.229223688915
3	452	3.884910102378	72.420602928663
3	457	3.978770938245	73.165886828266
3	467	4.078770938245	74.840037866283
3	472	4.178770938245	76.514188904301
3	481	4.179532709531	76.526942106193
3	485	4.179534080097	76.526965051538
3	498	4.180206080097	76.538215346513
3	501	4.180214780192	76.538360999244
3	505	4.180216139962	76.538383763848
3	514	4.180520139962	76.543473183003
3	518	4.180568780192	76.544287493919
3	522	4.180570139981	76.54431025884
3	533	4.181242139981	76.555560553816
3	536	4.181250850834	76.555706386652
3	540	4.1812522216	76.555729335345
3	549	4.1815562216	76.560818754501
3	565	4.195254009217	76.790140408076
3	571	4.195304009217	76.790977483595
3	588	4.278770938245	78.188339942319
3	593	4.378770938245	79.862490980336
3	606	4.411053481512	80.402949513539
3	613	4.411103613255	80.403788794635
3	628	4.478770938245	81.536642018354
3	633	4.578770938245	83.210793056371
3	638	4.678770938245	84.884944094389
3	643	4.778770938245	86.559095132407
3	658	4.860757459886	87.931673335494
3	670	4.860807982987	87.932519168514
3	678	4.878770938245	88.233246170424
3	684	4.978770938245	89.907397208442
3	694	5.078770938245	91.581548246459
3	699	5.178770938245	93.255699284477
3	708	5.179532709531	93.268452486369
3	712	5.179534199708	93.268477434182
3	725	5.180206199708	93.279727729158
3	728	5.180214794177	93.27987161355
3	732	5.180216210354	93.279895322492
3	741	5.180520210354	93.284984741647
3	745	5.180708794177	93.288141919678
3	749	5.180710210384	93.288165629122
3	760	5.181382210384	93.299415924097
3	763	5.181390878865	93.299561047562
3	767	5.181392369269	93.299585999176
3	776	5.181696369269	93.304675418332
3	792	5.195254009217	93.531650788252
3	798	5.195304009217	93.532487863771
3	815	5.278770938245	94.929850322494
3	820	5.378770938245	96.604001360512
3	833	5.411053481512	97.144459893715
3	840	5.411103692708	97.145300504974
3	855	5.478770938245	98.27815239853
3	860	5.578770938245	99.952303436547
3	866	5.678770938245	101.62645447456
3	871	5.778770938245	103.30060551258
3	885	5.860757459886	104.67318371567
3	897	5.860808092232	104.67403137762
3	906	5.878770938245	104.9747565506
3	912	5.978770938245	106.64890758862
3	921	6.064318754971	108.08110725034
3	926	6.164318754971	110.40918324574
3	936	6.179532709531	110.76337566981
3	939	6.179534232689	110.76341113008
3	952	6.180206232689	110.77905580077
3	956	6.180214817411	110.77925565962
3	959	6.18021623531	110.77928866939
3	968	6.18052023531	110.78636602041
3	973	6.180668817411	110.78982512464
3	976	6.180670235302	110.78985813422
3	988	6.181342235302	110.80550280491
3	992	6.181350925246	110.80570511341
3	995	6.181352448286	110.80574057094
3	1004	6.181656448286	110.81281792197
3	1020	6.195254009217	111.12937947396
3	1026	6.195304009217	111.13054351196
3	1042	6.264318754971	112.73725924115
3	1047	6.364318754971	115.06533523655
3	1061	6.411053481512	116.15335518667
3	1068	6.411103719496	116.15452476512
3	1082	6.464318754971	117.39341123196
3	1087	6.564318754971	119.72148722736
3	1092	6.664318754971	122.04956322277
3	1097	6.764318754971	124.37763921817
3	1112	6.860757459886	126.62280555758
3	1124	6.860808118212	126.6239849219
3	1132	6.864318754971	126.70571521358
3	1138	6.964318754971	129.03379120898
3	1149	7.064318754971	131.36186720439
3	1154	7.164318754971	133.68994319979
3	1163	7.179532709531	134.04413562385
3	1166	7.17953416789	134.04416957556
3	1179	7.18020616789	134.05981424625
3	1183	7.18021479531	134.06001509914
3	1186	7.180216193155	134.06004764204
3	1195	7.180520193155	134.06712499306
3	1200	7.18064879531	134.07011894896
3	1203	7.180650193134	134.07015149137
3	1215	7.181322193134	134.08579616206
3	1219	7.181330881118	134.08599842493
3	1222	7.181332339361	134.08603237393
3	1231	7.181636339361	134.09310972496
4	0	0	51.249779108912
4	12	0.1	51.645859924076
4	17	0.2	52.04194073924
4	22	0.3	52.438021554404
4	27	0.4	52.834102369568
4	32	0.5	53.230183184732
4	37	0.6	53.626263999896
4	42	0.7	54.02234481506
4	47	0.8	54.418425630224
4	52	0.9	54.814506445388
4	62	1	55.210587260552
4	67	1.1	55.606668075717
4	72	1.2	56.002748890881
4	78	1.3	56.398829706045
4	83	1.4	56.794910521209
4	89	1.5	57.190991336373
4	94	1.6	57.587072151537
4	99	1.7	57.983152966701
4	104	1.8	58.379233781865
4	110	1.884910102378	58.71554640752
4	115	1.984910102378	58.025229405683
4	125	2.084910102378	57.334912403846
4	130	2.184910102378	56.644595402009
4	135	2.284910102378	55.954278400172
4	141	2.384910102378	55.263961398335
4	146	2.484910102378	54.573644396498
4	151	2.584910102378	53.883327394661
4	156	2.684910102378	53.193010392824
4	162	2.784910102378	52.502693390986
4	167	2.884910102378	51.812376389149
4	172	2.984910102378	51.122059387312
4	182	3.084910102378	50.431742385475
4	196	3.179532709531	49.778546440716
4	200	3.179533996465	49.778537556792
4	213	3.179583996465	49.778192398291
4	217	3.179692812382	49.777441223516
4	221	3.179694145475	49.777432020948
4	233	3.180142145475	49.77433940078
4	236	3.180150915235	49.774278861635
4	240	3.180152202193	49.774269977545
4	249	3.180456202193	49.77217141386
4	253	3.180604915235	49.771144822447
4	257	3.180606202211	49.771135938233
4	270	3.181278202211	49.766497007981
4	273	3.181287018097	49.766436150421
4	277	3.181288351221	49.766426947639
4	286	3.181592351221	49.764328383953
4	290	3.181681018097	49.763716301433
4	294	3.181682351229	49.763707098597
4	305	3.182354351229	49.759068168344
4	308	3.182363120969	49.759007629338
4	312	3.182364408014	49.758998744647
4	321	3.182668408014	49.756900180962
4	322	3.184910102378	49.741425383638
4	339	3.195254009217	49.670019636074
4	345	3.195304009217	49.669674477573
4	363	3.284910102378	49.051108381801
4	369	3.384910102378	48.360791379964
4	380	3.411053481512	48.180319188947
4	387	3.411103595495	48.179973243602
4	403	3.484910102378	47.670474378127
4	408	3.584910102378	46.98015737629
4	413	3.684910102378	46.289840374452
4	418	3.784910102378	45.599523372615
4	432	3.860757459886	45.075936168293
4	444	3.860807857019	45.075588268316
4	452	3.884910102378	44.909206370778
4	457	3.978770938245	44.261269062722
4	467	4.078770938245	41.717864939496
4	472	4.178770938245	39.174460816271
4	481	4.179532709531	39.155085893973
4	485	4.179534080097	39.155051034941
4	498	4.180206080097	39.137959359233
4	501	4.180214780192	39.137738080658
4	505	4.180216139962	39.137703496212
4	514	4.180520139962	39.129971547677
4	518	4.180568780192	39.128734430062
4	522	4.180570139981	39.128699845132
4	533	4.181242139981	39.111608169424
4	536	4.181250850834	39.11138661723
4	540	4.1812522216	39.111351753111
4	549	4.1815562216	39.103619804576
4	565	4.195254009217	38.755229709535
4	571	4.195304009217	38.753958007473
4	588	4.278770938245	36.631056693045
4	593	4.378770938245	34.08765256982
4	606	4.411053481512	33.266577033285
4	613	4.411103613255	33.265301980466
4	628	4.478770938245	31.544248446594
4	633	4.578770938245	29.000844323369
4	638	4.678770938245	26.457440200143
4	643	4.778770938245	23.914036076918
4	658	4.860757459886	21.828787505011
4	670	4.860807982987	21.827502498377
4	678	4.878770938245	21.370631953692
4	684	4.978770938245	18.827227830467
4	694	5.078770938245	16.283823707241
4	699	5.178770938245	13.740419584015
4	708	5.179532709531	13.721044661718
4	712	5.179534199708	13.721006760495
4	725	5.180206199708	13.703915084786
4	728	5.180214794177	13.703696492708
4	732	5.180216210354	13.703660473603
4	741	5.180520210354	13.695928525069
4	745	5.180708794177	13.691132076339
4	749	5.180710210384	13.691096056472
4	760	5.181382210384	13.674004380764
4	763	5.181390878865	13.67378390626
4	767	5.181392369269	13.673745999264
4	776	5.181696369269	13.666014050729
4	792	5.195254009217	13.321188477279
4	798	5.195304009217	13.319916775218
4	815	5.278770938245	11.19701546079
4	820	5.378770938245	8.6536113375644
4	833	5.411053481512	7.8325358010295
4	840	5.411103692708	7.8312587274001
4	855	5.478770938245	6.1102072143389
4	860	5.578770938245	3.5668030911134
4	866	5.678770938245	1.0233989678878
4	871	5.778770938245	1.5200051553377
4	885	5.860757459886	3.6052537272441
4	897	5.860808092232	3.6065415124199
4	906	5.878770938245	4.0634092785632
4	912	5.978770938245	6.6068134017888
4	921	6.064318754971	8.7826400997273
4	926	6.164318754971	8.5339696602376
4	936	6.179532709531	8.4961370525695
4	939	6.179534232689	8.4961332649258
4	952	6.180206232689	8.4944621995724
4	956	6.180214817411	8.4944408519065
4	959	6.18021623531	8.4944373260108
4	968	6.18052023531	8.4936813678748
4	973	6.180668817411	8.4933118881112
4	976	6.180670235302	8.4933083622354
4	988	6.181342235302	8.491637296882
4	992	6.181350925246	8.4916156875601
4	995	6.181352448286	8.4916119002098
4	1004	6.181656448286	8.4908559420738
4	1020	6.195254009217	8.4570428275468
4	1026	6.195304009217	8.4569184923271
4	1042	6.264318754971	8.2852992207479
4	1047	6.364318754971	8.0366287812582
4	1061	6.411053481512	7.9204133313744
4	1068	6.411103719496	7.9202884043588
4	1082	6.464318754971	7.7879583417686
4	1087	6.564318754971	7.5392879022789
4	1092	6.664318754971	7.2906174627892
4	1097	6.764318754971	7.0419470232995
4	1112	6.860757459886	6.8021324719492
4	1124	6.860808118212	6.8020064996673
4	1132	6.864318754971	6.7932765838098
4	1138	6.964318754971	6.5446061443202
4	1149	7.064318754971	6.2959357048305
4	1154	7.164318754971	6.0472652653408
4	1163	7.179532709531	6.0094326576727
4	1166	7.17953416789	6.009429031165
4	1179	7.18020616789	6.0077579658116
4	1183	7.18021479531	6.0077365119684
4	1186	7.180216193155	6.0077330359411
4	1195	7.180520193155	6.006977077805
4	1200	7.18064879531	6.006657282261
4	1203	7.180650193134	6.0066538062859
4	1215	7.181322193134	6.0049827409325
4	1219	7.181330881118	6.0049611364845
4	1222	7.181332339361	6.0049575102653
4	1231	7.181636339361	6.0042015521292
5	0	0	0
5	12	0.1	0
5	17	0.2	0
5	22	0.3	0
5	27	0.4	0
5	32	0.5	0
5	37	0.6	0
5	42	0.7	0
5	47	0.8	0
5	52	0.9	0
5	62	1	0
5	67	1.1	0
5	72	1.2	0
5	78	1.3	0
5	83	1.4	0
5	89	1.5	0
5	94	1.6	0
5	99	1.7	0
5	104	1.8	0
5	110	1.884910102378	0
5	115	1.984910102378	0
5	125	2.084910102378	0
5	130	2.184910102378	0
5	135	2.284910102378	0
5	141	2.384910102378	0
5	146	2.484910102378	0
5	151	2.584910102378	0
5	156	2.684910102378	0
5	162	2.784910102378	0
5	167	2.884910102378	0
5	172	2.984910102378	0
5	182	3.084910102378	0
5	196	3.179532709531	0
5	200	3.179533996465	0
5	213	3.179583996465	0
5	217	3.179692812382	0
5	221	3.179694145475	0
5	233	3.180142145475	0
5	236	3.180150915235	0
5	240	3.180152202193	0
5	249	3.180456202193	0
5	253	3.180604915235	0
5	257	3.180606202211	0
5	270	3.181278202211	0
5	273	3.181287018097	0
5	277	3.181288351221	0
5	286	3.181592351221	0
5	290	3.181681018097	0
5	294	3.181682351229	0
5	305	3.182354351229	0
5	308	3.182363120969	0
5	312	3.182364408014	0
5	321	3.182668408014	0
5	322	3.184910102378	0
5	339	3.195254009217	0
5	345	3.195304009217	0
5	363	3.284910102378	0
5	369	3.384910102378	0
5	380	3.411053481512	0
5	387	3.411103595495	0
5	403	3.484910102378	0
5	408	3.584910102378	0
5	413	3.684910102378	0
5	418	3.784910102378	0
5	432	3.860757459886	0
5	444	3.860807857019	0
5	452	3.884910102378	0
5	457	3.978770938245	0
5	467	4.078770938245	0
5	472	4.178770938245	0
5	481	4.179532709531	0
5	485	4.179534080097	0
5	498	4.180206080097	0
5	501	4.180214780192	0
5	505	4.180216139962	0
5	514	4.180520139962	0
5	518	4.180568780192	0
5	522	4.180570139981	0
5	533	4.181242139981	0
5	536	4.181250850834	0
5	540	4.1812522216	0
5	549	4.1815562216	0
5	565	4.195254009217	0
5	571	4.195304009217	0
5	588	4.278770938245	0
5	593	4.378770938245	0
5	606	4.411053481512	0
5	613	4.411103613255	0
5	628	4.478770938245	0
5	633	4.578770938245	0
5	638	4.678770938245	0
5	643	4.778770938245	0
5	658	4.860757459886	0
5	670	4.860807982987	0
5	678	4.878770938245	0
5	684	4.978770938245	0
5	694	5.078770938245	0
5	699	5.178770938245	0
5	708	5.179532709531	0
5	712	5.179534199708	0
5	725	5.180206199708	0
5	728	5.180214794177	0
5	732	5.180216210354	0
5	741	5.180520210354	0
5	745	5.180708794177	0
5	749	5.180710210384	0
5	760	5.181382210384	0
5	763	5.181390878865	0
5	767	5.181392369269	0
5	776	5.181696369269	0
5	792	5.195254009217	0
5	798	5.195304009217	0
5	815	5.278770938245	0
5	820	5.378770938245	0
5	833	5.411053481512	0
5	840	5.411103692708	0
5	855	5.478770938245	0
5	860	5.578770938245	0
5	866	5.678770938245	0
5	871	5.778770938245	0
5	885	5.860757459886	0
5	897	5.860808092232	0
5	906	5.878770938245	0
5	912	5.978770938245	0
5	921	6.064318754971	0
5	926	6.164318754971	0
5	936	6.179532709531	0
5	939	6.179534232689	0
5	952	6.180206232689	0
5	956	6.180214817411	0
5	959	6.18021623531	0
5	968	6.18052023531	0
5	973	6.180668817411	0
5	976	6.180670235302	0
5	988	6.181342235302	0
5	992	6.181350925246	0
5	995	6.181352448286	0
5	1004	6.181656448286	0
5	1020	6.195254009217	0
5	1026	6.195304009217	0
5	1042	6.264318754971	0
5	1047	6.364318754971	0
5	1061	6.411053481512	0
5	1068	6.411103719496	0
5	1082	6.464318754971	0
5	1087	6.564318754971	0
5	1092	6.664318754971	0
5	1097	6.764318754971	0
5	1112	6.860757459886	0
5	1124	6.860808118212	0
5	1132	6.864318754971	0
5	1138	6.964318754971	0
5	1149	7.064318754971	0
5	1154	7.164318754971	0
5	1163	7.179532709531	0
5	1166	7.17953416789	0
5	1179	7.18020616789	0
5	1183	7.18021479531	0
5	1186	7.180216193155	0
5	1195	7.180520193155	0
5	1200	7.18064879531	0
5	1203	7.180650193134	0
5	1215	7.181322193134	0
5	1219	7.181330881118	0
5	1222	7.181332339361	0
5	1231	7.181636339361	0
6	0	0	88.053535530344
6	13	0.1	87.123797240286
6	18	0.2	86.194058950228
6	23	0.3	85.26432066017
6	28	0.4	84.334582370112
6	33	0.5	83.404844080054
6	38	0.6	82.475105789996
6	43	0.7	81.545367499938
6	48	0.8	80.61562920988
6	53	0.9	79.685890919822
6	63	1	78.756152629764
6	68	1.1	77.826414339706
6	73	1.2	76.896676049648
6	79	1.3	75.96693775959
6	84	1.4	75.037199469532
6	86	1.420142778582	74.849924344373
6	91	1.520142778582	74.531724609313
6	96	1.620142778582	74.213524874252
6	101	1.720142778582	73.895325139191
6	107	1.820142778582	73.577125404131
6	112	1.920142778582	73.25892566907
6	122	2.020142778582	72.940725934009
6	127	2.120142778582	72.622526198949
6	132	2.220142778582	72.304326463888
6	137	2.320142778582	71.986126728827
6	140	2.350079408367	71.890868452165
6	145	2.450079408367	72.783302548073
6	150	2.550079408367	73.675736643981
6	155	2.650079408367	74.568170739889
6	160	2.750079408367	75.460604835797
6	165	2.850079408367	76.353038931705
6	170	2.950079408367	77.245473027613
6	180	3.050079408367	78.137907123521
6	185	3.150079408367	79.030341219429
6	196	3.179532709531	79.293192521387
6	198	3.1795337115	79.2932014633
6	211	3.1795837115	79.293647680348
6	217	3.179692812382	79.294621333818
6	219	3.179693843633	79.294630537053
6	231	3.180141843633	79.298628641803
6	236	3.180150915235	79.298709599872
6	238	3.180151917205	79.298718541794
6	247	3.180455917205	79.301431541446
6	253	3.180604915235	79.302761250668
6	255	3.180605917206	79.302770192599
6	268	3.181277917206	79.308767349723
6	273	3.181287018097	79.308848569178
6	275	3.181288049309	79.308857772065
6	284	3.181592049309	79.311570771717
6	290	3.181681018097	79.312364759515
6	292	3.181682049299	79.312373962314
6	303	3.182354049299	79.318371119438
6	308	3.182363120969	79.318452078114
6	310	3.182364122943	79.318461020072
6	319	3.182668122943	79.321174019723
6	339	3.195254009217	79.433494760105
6	351	3.195304367437	79.43394417403
6	361	3.250079408367	79.922775315337
6	367	3.350079408367	80.815209411245
6	380	3.411053481512	81.359362829655
6	392	3.411103739076	81.359811345292
6	401	3.450079408367	81.707643507153
6	406	3.550079408367	82.600077603061
6	411	3.650079408367	83.492511698969
6	416	3.750079408367	84.384945794877
6	421	3.850079408367	85.277379890785
6	432	3.860757459886	85.372674463319
6	438	3.860807459886	85.373120680367
6	455	3.950079408367	86.169813986693
6	465	4.050079408367	87.062248082601
6	469	4.100962727668	87.516348173173
6	481	4.179532709531	88.962188623645
6	483	4.179533739108	88.962207569864
6	496	4.180205739108	88.97457367661
6	501	4.180214780192	88.974740050136
6	503	4.180215784374	88.974758529038
6	512	4.180519784374	88.980352720184
6	518	4.180568780192	88.981254338511
6	520	4.180569784353	88.981272817026
6	531	4.181241784353	88.993638923772
6	536	4.181250850834	88.993805764652
6	538	4.181251880412	88.99382471089
6	547	4.181555880412	88.999418902037
6	565	4.195254009217	89.251491108908
6	577	4.19530444054	89.252419143318
6	584	4.200962727668	89.356542629363
6	590	4.300962727668	91.196737085553
6	595	4.400962727668	93.036931541743
6	606	4.411053481512	93.222621034568
6	618	4.411103847923	93.223547874471
6	630	4.500962727668	94.877125997933
6	635	4.600962727668	96.717320454123
6	640	4.700962727668	98.557514910314
6	645	4.800962727668	100.3977093665
6	658	4.860757459886	101.49804871387
6	664	4.860807459886	101.4989688111
6	680	4.900962727668	102.23790382269
6	691	5.000962727668	104.07809827888
6	696	5.100962727668	105.91829273507
6	708	5.179532709531	107.36413318555
6	710	5.17953373944	107.36415213788
6	723	5.18020573944	107.37651824462
6	728	5.180214794177	107.37668486939
6	730	5.180215741703	107.37670230571
6	739	5.180519741703	107.38229649686
6	745	5.180708794177	107.38577543
6	747	5.180709741678	107.38579286586
6	758	5.181381741678	107.39815897261
6	763	5.181390878865	107.39832711462
6	765	5.181391908775	107.39834606696
6	774	5.181695908775	107.40394025811
6	792	5.195254009217	107.65343567081
6	804	5.195304578463	107.65436624327
6	811	5.200962727668	107.75848719126
6	817	5.300962727668	109.59868164745
6	822	5.400962727668	111.43887610364
6	833	5.411053481512	111.62456559647
6	845	5.411103959347	111.62549448679
6	857	5.500962727668	113.27907055984
6	862	5.600962727668	115.11926501603
6	863	5.608046907262	115.24962769618
6	869	5.708046907262	115.652380067
6	874	5.808046907262	116.05513243782
6	885	5.860757459886	116.26742543819
6	891	5.860807459886	116.26762681438
6	909	5.908046907262	116.45788480865
6	919	6.008046907262	116.86063717947
6	924	6.108046907262	117.26338955029
6	936	6.179532709531	117.55130031373
6	938	6.179533742269	117.55130447311
6	951	6.180205742269	117.55401096904
6	956	6.180214817411	117.55404751939
6	958	6.180215742866	117.55405124668
6	967	6.180519742866	117.55527561389
6	973	6.180668817411	117.55587601515
6	975	6.180669742865	117.55587974244
6	987	6.181341742865	117.55858623837
6	992	6.181350925246	117.55862322063
6	994	6.181351957918	117.55862737974
6	1003	6.181655957918	117.55985174695
6	1020	6.195254009217	117.61461822094
6	1032	6.195304637174	117.61482212623
6	1040	6.208046907262	117.66614192111
6	1045	6.308046907262	118.06889429193
6	1050	6.408046907262	118.47164666275
6	1061	6.411053481512	118.48375571183
6	1073	6.411104068322	118.4839594514
6	1085	6.508046907262	118.87439903358
6	1090	6.608046907262	119.2771514044
6	1095	6.708046907262	119.67990377522
6	1100	6.808046907262	120.08265614604
6	1101	6.838883138256	120.20684979744
6	1112	6.860757459886	120.52902029876
6	1118	6.860807459886	120.52975671131
6	1136	6.938883138256	121.67967490611
6	1146	7.038883138256	123.15250001477
6	1151	7.138883138256	124.62532512343
6	1163	7.179532709531	125.22402221574
6	1165	7.17953370362	125.22403685693
6	1178	7.18020570362	125.23393424166
6	1183	7.18021479531	125.23406814635
6	1185	7.180215709654	125.23408161304
6	1194	7.180519709654	125.23855900137
6	1200	7.18064879531	125.24046020732
6	1202	7.180649709628	125.24047367363
6	1214	7.181321709628	125.25037105836
6	1219	7.181330881118	125.25050613837
6	1221	7.181331875117	125.25052077823
6	1230	7.181635875117	125.25499816656
7	0	0	94.4355905056
7	13	0.1	96.657121675906
7	18	0.2	98.878652846213
7	23	0.3	101.10018401652
7	28	0.4	103.32171518683
7	33	0.5	105.54324635713
7	38	0.6	107.76477752744
7	43	0.7	109.98630869774
7	48	0.8	112.20783986805
7	53	0.9	114.42937103836
7	63	1	116.65090220866
7	68	1.1	118.87243337897
7	73	1.2	121.09396454928
7	79	1.3	123.31549571958
7	84	1.4	125.53702688989
7	86	1.420142778582	125.98450499465
7	91	1.520142778582	128.28213274632
7	96	1.620142778582	130.57976049799
7	101	1.720142778582	132.87738824965
7	107	1.820142778582	135.17501600132
7	112	1.920142778582	137.47264375299
7	122	2.020142778582	139.77027150465
7	127	2.120142778582	142.06789925632
7	132	2.220142778582	144.36552700799
7	137	2.320142778582	146.66315475965
7	140	2.350079408367	147.35098707351
7	145	2.450079408367	148.4137420426
7	150	2.550079408367	149.4764970117
7	155	2.650079408367	150.5392519808
7	160	2.750079408367	151.60200694989
7	165	2.850079408367	152.66476191899
7	170	2.950079408367	153.72751688808
7	180	3.050079408367	154.79027185718
7	185	3.150079408367	155.85302682627
7	196	3.179532709531	156.16604324796
7	198	3.1795337115	156.16605389643
7	211	3.1795837115	156.16658527392
7	217	3.179692812382	156.16774474896
7	219	3.179693843633	156.16775570863
7	231	3.180141843633	156.1725168509
7	236	3.180150915235	156.1726132598
7	238	3.180151917205	156.17262390828
7	247	3.180455917205	156.17585468339
7	253	3.180604915235	156.17743816736
7	255	3.180605917206	156.17744881585
7	268	3.181277917206	156.18459052925
7	273	3.181287018097	156.18468724942
7	275	3.181288049309	156.18469820867
7	284	3.181592049309	156.18792898378
7	290	3.181681018097	156.18887450399
7	292	3.181682049299	156.18888546315
7	303	3.182354049299	156.19602717654
7	308	3.182363120969	156.19612358616
7	310	3.182364122943	156.19613423469
7	319	3.182668122943	156.1993650098
7	339	3.195254009217	156.33312214158
7	351	3.195304367437	156.33365732606
7	361	3.250079408367	156.91578179537
7	367	3.350079408367	157.97853676447
7	380	3.411053481512	158.62654175668
7	392	3.411103739076	158.62707587143
7	401	3.450079408367	159.04129173356
7	406	3.550079408367	160.10404670266
7	411	3.650079408367	161.16680167175
7	416	3.750079408367	162.22955664085
7	421	3.850079408367	163.29231160995
7	432	3.860757459886	163.40579313307
7	438	3.860807459886	163.40632451055
7	455	3.950079408367	164.35506657904
7	465	4.050079408367	165.41782154814
7	469	4.100962727668	165.95858655245
7	481	4.179532709531	167.21027007987
7	483	4.179533739108	167.21028648187
7	496	4.180205739108	167.22099198683
7	501	4.180214780192	167.22113601863
7	503	4.180215784374	167.22115201606
7	512	4.180519784374	167.22599498259
7	518	4.180568780192	167.2267755257
7	520	4.180569784353	167.2267915228
7	531	4.181241784353	167.23749702776
7	536	4.181250850834	167.23764146415
7	538	4.181251880412	167.23765786617
7	547	4.181555880412	167.2425008327
7	565	4.195254009217	167.46072313306
7	577	4.19530444054	167.46152654493
7	584	4.200962727668	167.55166764747
7	590	4.300962727668	169.14474874249
7	595	4.400962727668	170.73782983751
7	606	4.411053481512	170.89858372935
7	618	4.411103847923	170.89938610712
7	630	4.500962727668	172.33091093254
7	635	4.600962727668	173.92399202756
7	640	4.700962727668	175.51707312258
7	645	4.800962727668	177.1101542176
7	658	4.860757459886	178.06273279238
7	664	4.860807459886	178.06352933293
7	680	4.900962727668	178.70323531262
7	691	5.000962727668	180.29631640764
7	696	5.100962727668	181.88939750267
7	708	5.179532709531	183.14108103009
7	710	5.17953373944	183.14109743737
7	723	5.18020573944	183.15180294233
7	728	5.180214794177	183.15194719163
7	730	5.180215741703	183.15196228649
7	739	5.180519741703	183.15680525302
7	745	5.180708794177	183.15981701224
7	747	5.180709741678	183.1598321067
7	758	5.181381741678	183.17053761166
7	763	5.181390878865	183.17068317446
7	765	5.181391908775	183.17069958176
7	774	5.181695908775	183.17554254829
7	792	5.195254009217	183.39153408328
7	804	5.195304578463	183.39233969237
7	811	5.200962727668	183.48247859769
7	817	5.300962727668	185.07555969271
7	822	5.400962727668	186.66864078773
7	833	5.411053481512	186.82939467956
7	845	5.411103959347	186.83019883241
7	857	5.500962727668	188.26172188275
7	862	5.600962727668	189.85480297777
7	863	5.608046907262	189.96765970362
7	869	5.708046907262	191.09746717827
7	874	5.808046907262	192.22727465292
7	885	5.860757459886	192.8228024164
7	891	5.860807459886	192.82336732013
7	909	5.908046907262	193.35708212757
7	919	6.008046907262	194.48688960222
7	924	6.108046907262	195.61669707687
7	936	6.179532709531	196.42434901422
7	938	6.179533742269	196.42436068217
7	951	6.180205742269	196.4319529884
7	956	6.180214817411	196.43205552003
7	958	6.180215742866	196.43206597589
7	967	6.180519742866	196.43550059062
7	973	6.180668817411	196.43718484597
7	975	6.180669742865	196.43719530182
7	987	6.181341742865	196.44478760805
7	992	6.181350925246	196.44489135127
7	994	6.181351957918	196.44490301848
7	1003	6.181655957918	196.4483376332
7	1020	6.195254009217	196.60196943318
7	1032	6.195304637174	196.60254143163
7	1040	6.208046907262	196.74650455152
7	1045	6.308046907262	197.87631202617
7	1050	6.408046907262	199.00611950082
7	1061	6.411053481512	199.04008800143
7	1073	6.411104068322	199.04065953499
7	1085	6.508046907262	200.13592697547
7	1090	6.608046907262	201.26573445012
7	1095	6.708046907262	202.39554192477
7	1100	6.808046907262	203.52534939942
7	1101	6.838883138256	203.87373944209
7	1112	6.860757459886	204.06929953782
7	1118	6.860807459886	204.06974654618
7	1136	6.938883138256	204.76775617566
7	1146	7.038883138256	205.66177290923
7	1151	7.138883138256	206.5557896428
7	1163	7.179532709531	206.91920361212
7	1165	7.17953370362	206.91921249945
7	1178	7.18020570362	206.9252202919
7	1183	7.18021479531	206.92530157313
7	1185	7.180215709654	206.92530974751
7	1194	7.180519709654	206.92802755838
7	1200	7.18064879531	206.92918160575
7	1202	7.180649709628	206.92918977991
7	1214	7.181321709628	206.93519757236
7	1219	7.181330881118	206.93527956701
7	1221	7.181331875117	206.93528845353
7	1230	7.181635875117	206.9380062644
8	0	0	0
8	13	0.1	0
8	18	0.2	0
8	23	0.3	0
8	28	0.4	0
8	33	0.5	0
8	38	0.6	0
8	43	0.7	0
8	48	0.8	0
8	53	0.9	0
8	63	1	0
8	68	1.1	0
8	73	1.2	0
8	79	1.3	0
8	84	1.4	0
8	86	1.420142778582	0
8	91	1.520142778582	0
8	96	1.620142778582	0
8	101	1.720142778582	0
8	107	1.820142778582	0
8	112	1.920142778582	0
8	122	2.020142778582	0
8	127	2.120142778582	0
8	132	2.220142778582	0
8	137	2.320142778582	0
8	140	2.350079408367	0
8	145	2.450079408367	0
8	150	2.550079408367	0
8	155	2.650079408367	0
8	160	2.750079408367	0
8	165	2.850079408367	0
8	170	2.950079408367	0
8	180	3.050079408367	0
8	185	3.150079408367	0
8	196	3.179532709531	0
8	198	3.1795337115	0
8	211	3.1795837115	0
8	217	3.179692812382	0
8	219	3.179693843633	0
8	231	3.180141843633	0
8	236	3.180150915235	0
8	238	3.180151917205	0
8	247	3.180455917205	0
8	253	3.180604915235	0
8	255	3.180605917206	0
8	268	3.181277917206	0
8	273	3.181287018097	0
8	275	3.181288049309	0
8	284	3.181592049309	0
8	290	3.181681018097	0
8	292	3.181682049299	0
8	303	3.182354049299	0
8	308	3.182363120969	0
8	310	3.182364122943	0
8	319	3.182668122943	0
8	339	3.195254009217	0
8	351	3.195304367437	0
8	361	3.250079408367	0
8	367	3.350079408367	0
8	380	3.411053481512	0
8	392	3.411103739076	0
8	401	3.450079408367	0
8	406	3.550079408367	0
8	411	3.650079408367	0
8	416	3.750079408367	0
8	421	3.850079408367	0
8	432	3.860757459886	0
8	438	3.860807459886	0
8	455	3.950079408367	0
8	465	4.050079408367	0
8	469	4.100962727668	0
8	481	4.179532709531	0
8	483	4.179533739108	0
8	496	4.180205739108	0
8	501	4.180214780192	0
8	503	4.180215784374	0
8	512	4.180519784374	0
8	518	4.180568780192	0
8	520	4.180569784353	0
8	531	4.181241784353	0
8	536	4.181250850834	0
8	538	4.181251880412	0
8	547	4.181555880412	0
8	565	4.195254009217	0
8	577	4.19530444054	0
8	584	4.200962727668	0
8	590	4.300962727668	0
8	595	4.400962727668	0
8	606	4.411053481512	0
8	618	4.411103847923	0
8	630	4.500962727668	0
8	635	4.600962727668	0
8	640	4.700962727668	0
8	645	4.800962727668	0
8	658	4.860757459886	0
8	664	4.860807459886	0
8	680	4.900962727668	0
8	691	5.000962727668	0
8	696	5.100962727668	0
8	708	5.179532709531	0
8	710	5.17953373944	0
8	723	5.18020573944	0
8	728	5.180214794177	0
8	730	5.180215741703	0
8	739	5.180519741703	0
8	745	5.180708794177	0
8	747	5.180709741678	0
8	758	5.181381741678	0
8	763	5.181390878865	0
8	765	5.181391908775	0
8	774	5.181695908775	0
8	792	5.195254009217	0
8	804	5.195304578463	0
8	811	5.200962727668	0
8	817	5.300962727668	0
8	822	5.400962727668	0
8	833	5.411053481512	0
8	845	5.411103959347	0
8	857	5.500962727668	0
8	862	5.600962727668	0
8	863	5.608046907262	0
8	869	5.708046907262	0
8	874	5.808046907262	0
8	885	5.860757459886	0
8	891	5.860807459886	0
8	909	5.908046907262	0
8	919	6.008046907262	0
8	924	6.108046907262	0
8	936	6.179532709531	0
8	938	6.179533742269	0
8	951	6.180205742269	0
8	956	6.180214817411	0
8	958	6.180215742866	0
8	967	6.180519742866	0
8	973	6.180668817411	0
8	975	6.180669742865	0
8	987	6.181341742865	0
8	992	6.181350925246	0
8	994	6.181351957918	0
8	1003	6.181655957918	0
8	1020	6.195254009217	0
8	1032	6.195304637174	0
8	1040	6.208046907262	0
8	1045	6.308046907262	0
8	1050	6.408046907262	0
8	1061	6.411053481512	0
8	1073	6.411104068322	0
8	1085	6.508046907262	0
8	1090	6.608046907262	0
8	1095	6.708046907262	0
8	1100	6.808046907262	0
8	1101	6.838883138256	0
8	1112	6.860757459886	0
8	1118	6.860807459886	0
8	1136	6.938883138256	0
8	1146	7.038883138256	0
8	1151	7.138883138256	0
8	1163	7.179532709531	0
8	1165	7.17953370362	0
8	1178	7.18020570362	0
8	1183	7.18021479531	0
8	1185	7.180215709654	0
8	1194	7.180519709654	0
8	1200	7.18064879531	0
8	1202	7.180649709628	0
8	1214	7.181321709628	0
8	1219	7.181330881118	0
8	1221	7.181331875117	0
8	1230	7.181635875117	0
9	0	0	111.75612676889
9	14	0.1	110.60682570355
9	19	0.2	109.45752463821
9	24	0.3	108.30822357287
9	29	0.4	107.15892250754
9	34	0.5	106.0096214422
9	39	0.6	104.86032037686
9	44	0.7	103.71101931152
9	49	0.8	102.56171824618
9	54	0.9	101.41241718085
9	64	1	100.26311611551
9	69	1.1	99.113815050171
9	74	1.2	97.964513984834
9	80	1.3	96.815212919496
9	85	1.4	95.665911854158
9	90	1.5	94.51661078882
9	95	1.6	93.367309723482
9	100	1.7	92.218008658145
9	105	1.8	91.068707592807
9	106	1.809433767542	90.960285201945
9	111	1.909433767542	89.613759725098
9	121	2.009433767542	88.267234248251
9	126	2.109433767542	86.920708771404
9	131	2.209433767542	85.574183294557
9	136	2.309433767542	84.227657817709
9	142	2.409433767542	82.881132340862
9	147	2.509433767542	81.534606864015
9	152	2.609433767542	80.188081387168
9	157	2.709433767542	78.841555910321
9	163	2.809433767542	77.495030433474
9	168	2.909433767542	76.148504956627
9	178	3.009433767542	74.801979479779
9	183	3.109433767542	73.455454002932
9	196	3.179532709531	72.51155389005
9	199	3.179533890533	72.511537987557
9	212	3.179583890533	72.510864724819
9	217	3.179692812382	72.509398064372
9	220	3.179694035065	72.509381600634
9	232	3.180142035065	72.503349166498
9	236	3.180150915235	72.503229592746
9	239	3.180152096308	72.503213689298
9	248	3.180456096308	72.499120251848
9	253	3.180604915235	72.497116367082
9	256	3.180606096361	72.497100462919
9	269	3.181278096361	72.488051811715
9	273	3.181287018097	72.487931678266
9	276	3.181288240928	72.487915212535
9	285	3.181592240928	72.483821775086
9	290	3.181681018097	72.482626367888
9	293	3.181682240964	72.482609901672
9	304	3.182354240964	72.473561250468
9	308	3.182363120969	72.473441678938
9	311	3.182364302298	72.473425772042
9	320	3.182668302298	72.469332334592
9	339	3.195254009217	72.299862584487
9	346	3.195304132509	72.29918766159
9	359	3.209433767542	72.108928526085
9	364	3.309433767542	70.762403049238
9	370	3.409433767542	69.415877572391
9	380	3.411053481512	69.394067711133
9	386	3.411103481512	69.393394448394
9	404	3.509433767542	68.069352095544
9	409	3.609433767542	66.722826618697
9	414	3.709433767542	65.376301141849
9	419	3.809433767542	64.029775665002
9	432	3.860757459886	63.338689071932
9	439	3.860807766325	63.338011682914
9	453	3.909433767542	62.683250188155
9	463	4.009433767542	61.336724711308
9	468	4.082454199383	60.353485993265
9	481	4.179532709531	59.971256286744
9	484	4.179534037775	59.971251057015
9	497	4.180206037775	59.968605174189
9	501	4.180214780192	59.968570752446
9	504	4.180216092221	59.968565586561
9	513	4.180520092221	59.967368639568
9	518	4.180568780192	59.967176939172
9	521	4.180570092241	59.967171773208
9	532	4.181242092241	59.964525890381
9	536	4.181250850834	59.964491404949
9	539	4.181252179284	59.964486174408
9	548	4.181556179284	59.963289227416
9	550	4.182454199383	59.95975342986
9	565	4.195254009217	59.90935641049
9	572	4.195304124574	59.90915909001
9	589	4.282454199383	59.566020866455
9	594	4.382454199383	59.17228830305
9	606	4.411053481512	59.059683616408
9	612	4.411103481512	59.059486750126
9	629	4.482454199383	58.778555739645
9	634	4.582454199383	58.38482317624
9	639	4.682454199383	57.991090612834
9	644	4.782454199383	57.597358049429
9	658	4.860757459886	57.289052614621
9	665	4.860807875991	57.288854109998
9	679	4.882454199383	57.203625486024
9	685	4.982454199383	56.809892922619
9	695	5.082454199383	56.416160359214
9	708	5.179532709531	56.033930652693
9	711	5.179534157538	56.033924951418
9	724	5.180206157538	56.031279068592
9	728	5.180214794177	56.031245063331
9	731	5.18021616346	56.031239672018
9	740	5.18052016346	56.030042725026
9	745	5.180708794177	56.029300024468
9	748	5.180710163491	56.029294633033
9	759	5.181382163491	56.026648750207
9	763	5.181390878865	56.026614434942
9	766	5.181392327095	56.026608732788
9	775	5.181696327095	56.025411785796
9	777	5.182454199383	56.022427795809
9	792	5.195254009217	55.972030776438
9	799	5.195304202976	55.971833147264
9	816	5.282454199383	55.628695232404
9	821	5.382454199383	55.234962668999
9	833	5.411053481512	55.122357982357
9	839	5.411103481512	55.122161116075
9	856	5.482454199383	54.841230105593
9	861	5.582454199383	54.447497542188
9	868	5.682454199383	54.053764978783
9	873	5.782454199383	53.660032415378
9	885	5.860757459886	53.35172698057
9	892	5.86080798014	53.351528065879
9	908	5.882454199383	53.266299851973
9	910	5.963577643718	52.94689043507
9	920	6.063577643718	52.476982694966
9	925	6.163577643718	52.007074954861
9	936	6.179532709531	51.932100865667
9	940	6.179534257982	51.932093589376
9	953	6.180206257982	51.928935809362
9	956	6.180214817411	51.928895587943
9	960	6.180216258307	51.928888817061
9	969	6.180520258307	51.927460297531
9	973	6.180668817411	51.926762206803
9	977	6.180670258354	51.9267554357
9	989	6.181342258354	51.923597655687
9	992	6.181350925246	51.92355692929
9	996	6.181352473811	51.923549652464
9	1005	6.181656473811	51.922121132934
9	1020	6.195254009217	51.858225261597
9	1027	6.195304237339	51.857989235764
9	1041	6.263577643718	51.537167214756
9	1046	6.363577643718	51.067259474652
9	1061	6.411053481512	50.844166838178
9	1067	6.411103481512	50.843931884308
9	1081	6.463577643718	50.597351734547
9	1086	6.563577643718	50.127443994443
9	1091	6.663577643718	49.657536254338
9	1096	6.763577643718	49.187628514233
9	1112	6.860757459886	48.73097303624
9	1119	6.860808105657	48.730735047843
9	1131	6.863577643718	48.717720774129
9	1137	6.963577643718	48.247813034024
9	1148	7.063577643718	47.77790529392
9	1153	7.163577643718	47.307997553815
9	1163	7.179532709531	47.233023464621
9	1167	7.179534320985	47.233015892274
9	1180	7.180206320985	47.22985811226
9	1183	7.18021479531	47.229818290751
9	1187	7.180216337049	47.229811046
9	1196	7.180520337049	47.22838252647
9	1200	7.18064879531	47.227778891159
9	1204	7.180650337079	47.227771646267
9	1216	7.181322337079	47.224613866254
9	1219	7.181330881118	47.224573717153
9	1223	7.181332492687	47.224566144266
9	1232	7.181636492687	47.223137624736
10	0	0	155.16429608688
10	14	0.1	152.73889434082
10	19	0.2	150.31349259477
10	24	0.3	147.88809084871
10	29	0.4	145.46268910266
10	34	0.5	143.0372873566
10	39	0.6	140.61188561055
10	44	0.7	138.18648386449
10	49	0.8	135.76108211844
10	54	0.9	133.33568037238
10	64	1	130.91027862633
10	69	1.1	128.48487688028
10	74	1.2	126.05947513422
10	80	1.3	123.63407338817
10	85	1.4	121.20867164211
10	90	1.5	118.78326989606
10	95	1.6	116.35786815
10	100	1.7	113.93246640395
10	105	1.8	111.50706465789
10	106	1.809433767542	111.27825789521
10	111	1.909433767542	109.47166510554
10	121	2.009433767542	107.66507231587
10	126	2.109433767542	105.8584795262
10	131	2.209433767542	104.05188673653
10	136	2.309433767542	102.24529394686
10	142	2.409433767542	100.43870115719
10	147	2.509433767542	98.632108367519
10	152	2.609433767542	96.825515577849
10	157	2.709433767542	95.018922788178
10	163	2.809433767542	93.212329998508
10	168	2.909433767542	91.405737208838
10	178	3.009433767542	89.599144419168
10	183	3.109433767542	87.792551629498
10	196	3.179532709531	86.52614919789
10	199	3.179533890533	86.526127861993
10	212	3.179583890533	86.525224565598
10	217	3.179692812382	86.523256791328
10	220	3.179694035065	86.523234702425
10	232	3.180142035065	86.515141166727
10	236	3.180150915235	86.514980738216
10	239	3.180152096308	86.514959401036
10	248	3.180456096308	86.509467358956
10	253	3.180604915235	86.506778806951
10	256	3.180606096361	86.506757468814
10	269	3.181278096361	86.494617165267
10	273	3.181287018097	86.494455985828
10	276	3.181288240928	86.494433894251
10	285	3.181592240928	86.488941852171
10	290	3.181681018097	86.487338010237
10	293	3.181682240964	86.487315918009
10	304	3.182354240964	86.475175614463
10	308	3.182363120969	86.475015188933
10	311	3.182364302298	86.474993847128
10	320	3.182668302298	86.469501805048
10	339	3.195254009217	86.24212933132
10	346	3.195304132509	86.241223807541
10	359	3.209433767542	85.985958839828
10	364	3.309433767542	84.179366050158
10	370	3.409433767542	82.372773260488
10	380	3.411053481512	82.343511624692
10	386	3.411103481512	82.342608328298
10	404	3.509433767542	80.566180470818
10	409	3.609433767542	78.759587681148
10	414	3.709433767542	76.952994891478
10	419	3.809433767542	75.146402101807
10	432	3.860757459886	74.219191976528
10	439	3.860807766325	74.218283144029
10	453	3.909433767542	73.339809312137
10	463	4.009433767542	71.533216522467
10	468	4.082454199383	70.214034665842
10	481	4.179532709531	69.11639557345
10	484	4.179534037775	69.116380555373
10	497	4.180206037775	69.108782442578
10	501	4.180214780192	69.108683594557
10	504	4.180216092221	69.108668759818
10	513	4.180520092221	69.105231518316
10	518	4.180568780192	69.104681017281
10	521	4.180570092241	69.104666182316
10	532	4.181242092241	69.097068069521
10	536	4.181250850834	69.096969038602
10	539	4.181252179284	69.096954018196
10	548	4.181556179284	69.093516776693
10	550	4.182454199383	69.083363118948
10	565	4.195254009217	68.938639311099
10	572	4.195304124574	68.938072671017
10	589	4.282454199383	67.952691572055
10	594	4.382454199383	66.822020025162
10	606	4.411053481512	66.498656079514
10	612	4.411103481512	66.49809074374
10	629	4.482454199383	65.691348478269
10	634	4.582454199383	64.560676931375
10	639	4.682454199383	63.430005384482
10	644	4.782454199383	62.299333837589
10	658	4.860757459886	61.413981150792
10	665	4.860807875991	61.413411110238
10	679	4.882454199383	61.168662290696
10	685	4.982454199383	60.037990743802
10	695	5.082454199383	58.907319196909
10	708	5.179532709531	57.809680104518
10	711	5.179534157538	57.809663732315
10	724	5.180206157538	57.80206561952
10	728	5.180214794177	57.8019679675
10	731	5.18021616346	57.801952485406
10	740	5.18052016346	57.798515243904
10	745	5.180708794177	57.796382450058
10	748	5.180710163491	57.796366967614
10	759	5.181382163491	57.788768854819
10	763	5.181390878865	57.788670312565
10	766	5.181392327095	57.788653937841
10	775	5.181696327095	57.785216696338
10	777	5.182454199383	57.776647650016
10	792	5.195254009217	57.631923842166
10	799	5.195304202976	57.631356315615
10	816	5.282454199383	56.645976103123
10	821	5.382454199383	55.515304556229
10	833	5.411053481512	55.191940610581
10	839	5.411103481512	55.191375274808
10	856	5.482454199383	54.384633009336
10	861	5.582454199383	53.253961462443
10	868	5.682454199383	52.12328991555
10	873	5.782454199383	50.992618368656
10	885	5.860757459886	50.107265681859
10	892	5.86080798014	50.106694463722
10	908	5.882454199383	49.861946821763
10	910	5.963577643718	48.944707118807
10	920	6.063577643718	46.195344146145
10	925	6.163577643718	43.445981173482
10	936	6.179532709531	43.007318501756
10	940	6.179534257982	43.007275929217
10	953	6.180206257982	42.988800210041
10	956	6.180214817411	42.98856488027
10	960	6.180216258307	42.988525264808
10	969	6.180520258307	42.980167201372
10	973	6.180668817411	42.976082772374
10	977	6.180670258354	42.97604315562
10	989	6.181342258354	42.957567436444
10	992	6.181350925246	42.957329152125
10	996	6.181352473811	42.957286576452
10	1005	6.181656473811	42.948928513015
10	1020	6.195254009217	42.575082909368
10	1027	6.195304237339	42.57370195598
10	1041	6.263577643718	40.69661820082
10	1046	6.363577643718	37.947255228158
10	1061	6.411053481512	36.641972122888
10	1067	6.411103481512	36.640597441402
10	1081	6.463577643718	35.197892255495
10	1086	6.563577643718	32.448529282833
10	1091	6.663577643718	29.69916631017
10	1096	6.763577643718	26.949803337508
10	1112	6.860757459886	24.277977454883
10	1119	6.860808105657	24.276585018808
10	1131	6.863577643718	24.200440364845
10	1137	6.963577643718	21.451077392183
10	1148	7.063577643718	18.70171441952
10	1153	7.163577643718	15.952351446858
10	1163	7.179532709531	15.513688775131
10	1167	7.179534320985	15.513644470412
10	1180	7.180206320985	15.495168751235
10	1183	7.18021479531	15.494935761282
10	1187	7.180216337049	15.49489337328
10	1196	7.180520337049	15.486535309844
10	1200	7.18064879531	15.48300352598
10	1204	7.180650337079	15.482961137154
10	1216	7.181322337079	15.464485417978
10	1219	7.181330881118	15.464250511333
10	1223	7.181332492687	15.464206203452
10	1232	7.181636492687	15.455848140015
11	0	0	0
11	14	0.1	0
11	19	0.2	0
11	24	0.3	0
11	29	0.4	0
11	34	0.5	0
11	39	0.6	0
11	44	0.7	0
11	49	0.8	0
11	54	0.9	0
11	64	1	0
11	69	1.1	0
11	74	1.2	0
11	80	1.3	0
11	85	1.4	0
11	90	1.5	0
11	95	1.6	0
11	100	1.7	0
11	105	1.8	0
11	106	1.809433767542	0
11	111	1.909433767542	0
11	121	2.009433767542	0
11	126	2.109433767542	0
11	131	2.209433767542	0
11	136	2.309433767542	0
11	142	2.409433767542	0
11	147	2.509433767542	0
11	152	2.609433767542	0
11	157	2.709433767542	0
11	163	2.809433767542	0
11	168	2.909433767542	0
11	178	3.009433767542	0
11	183	3.109433767542	0
11	196	3.179532709531	0
11	199	3.179533890533	0
11	212	3.179583890533	0
11	217	3.179692812382	0
11	220	3.179694035065	0
11	232	3.180142035065	0
11	236	3.180150915235	0
11	239	3.180152096308	0
11	248	3.180456096308	0
11	253	3.180604915235	0
11	256	3.180606096361	0
11	269	3.181278096361	0
11	273	3.181287018097	0
11	276	3.181288240928	0
11	285	3.181592240928	0
11	290	3.181681018097	0
11	293	3.181682240964	0
11	304	3.182354240964	0
11	308	3.182363120969	0
11	311	3.182364302298	0
11	320	3.182668302298	0
11	339	3.195254009217	0
11	346	3.195304132509	0
11	359	3.209433767542	0
11	364	3.309433767542	0
11	370	3.409433767542	0
11	380	3.411053481512	0
11	386	3.411103481512	0
11	404	3.509433767542	0
11	409	3.609433767542	0
11	414	3.709433767542	0
11	419	3.809433767542	0
11	432	3.860757459886	0
11	439	3.860807766325	0
11	453	3.909433767542	0
11	463	4.009433767542	0
11	468	4.082454199383	0
11	481	4.179532709531	0
11	484	4.179534037775	0
11	497	4.180206037775	0
11	501	4.180214780192	0
11	504	4.180216092221	0
11	513	4.180520092221	0
11	518	4.180568780192	0
11	521	4.180570092241	0
11	532	4.181242092241	0
11	536	4.181250850834	0
11	539	4.181252179284	0
11	548	4.181556179284	0
11	550	4.182454199383	0
11	565	4.195254009217	0
11	572	4.195304124574	0
11	589	4.282454199383	0
11	594	4.382454199383	0
11	606	4.411053481512	0
11	612	4.411103481512	0
11	629	4.482454199383	0
11	634	4.582454199383	0
11	639	4.682454199383	0
11	644	4.782454199383	0
11	658	4.860757459886	0
11	665	4.860807875991	0
11	679	4.882454199383	0
11	685	4.982454199383	0
11	695	5.082454199383	0
11	708	5.179532709531	0
11	711	5.179534157538	0
11	724	5.180206157538	0
11	728	5.180214794177	0
11	731	5.18021616346	0
11	740	5.18052016346	0
11	745	5.180708794177	0
11	748	5.180710163491	0
11	759	5.181382163491	0
11	763	5.181390878865	0
11	766	5.181392327095	0
11	775	5.181696327095	0
11	777	5.182454199383	0
11	792	5.195254009217	0
11	799	5.195304202976	0
11	816	5.282454199383	0
11	821	5.382454199383	0
11	833	5.411053481512	0
11	839	5.411103481512	0
11	856	5.482454199383	0
11	861	5.582454199383	0
11	868	5.682454199383	0
11	873	5.782454199383	0
11	885	5.860757459886	0
11	892	5.86080798014	0
11	908	5.882454199383	0
11	910	5.963577643718	0
11	920	6.063577643718	0
11	925	6.163577643718	0
11	936	6.179532709531	0
11	940	6.179534257982	0
11	953	6.180206257982	0
11	956	6.180214817411	0
11	960	6.180216258307	0
11	969	6.180520258307	0
11	973	6.180668817411	0
11	977	6.180670258354	0
11	989	6.181342258354	0
11	992	6.181350925246	0
11	996	6.181352473811	0
11	1005	6.181656473811	0
11	1020	6.195254009217	0
11	1027	6.195304237339	0
11	1041	6.263577643718	0
11	1046	6.363577643718	0
11	1061	6.411053481512	0
11	1067	6.411103481512	0
11	1081	6.463577643718	0
11	1086	6.563577643718	0
11	1091	6.663577643718	0
11	1096	6.763577643718	0
11	1112	6.860757459886	0
11	1119	6.860808105657	0
11	1131	6.863577643718	0
11	1137	6.963577643718	0
11	1148	7.063577643718	0
11	1153	7.163577643718	0
11	1163	7.179532709531	0
11	1167	7.179534320985	0
11	1180	7.180206320985	0
11	1183	7.18021479531	0
11	1187	7.180216337049	0
11	1196	7.180520337049	0
11	1200	7.18064879531	0
11	1204	7.180650337079	0
11	1216	7.181322337079	0
11	1219	7.181330881118	0
11	1223	7.181332492687	0
11	1232	7.181636492687	0
12	0	0	238.06048119441
12	15	0.1	240.62720915042
12	20	0.2	243.19393710644
12	25	0.3	245.76066506246
12	30	0.4	248.32739301847
12	35	0.5	250.89412097449
12	40	0.6	253.46084893051
12	45	0.7	256.02757688653
12	50	0.8	258.59430484254
12	55	0.9	261.16103279856
12	65	1	263.72776075458
12	70	1.1	266.29448871059
12	75	1.2	268.86121666661
12	76	1.237295456952	269.81848958652
12	81	1.337295456952	271.78273436274
12	87	1.437295456952	273.74697913895
12	92	1.537295456952	275.71122391517
12	97	1.637295456952	277.67546869138
12	102	1.737295456952	279.6397134676
12	108	1.837295456952	281.60395824381
12	113	1.937295456952	283.56820302003
12	123	2.037295456952	285.53244779624
12	128	2.137295456952	287.49669257246
12	133	2.237295456952	289.46093734867
12	138	2.337295456952	291.42518212489
12	143	2.437295456952	293.38942690111
12	148	2.537295456952	295.35367167732
12	153	2.637295456952	297.31791645354
12	158	2.737295456952	299.28216122975
12	164	2.837295456952	301.24640600597
12	169	2.937295456952	303.21065078218
12	179	3.037295456952	305.1748955584
12	184	3.137295456952	307.13914033461
12	196	3.179532709531	307.96878336201
12	202	3.179582709531	307.9697654844
12	217	3.179692812382	307.9719281739
12	224	3.180140915235	307.98073001078
12	236	3.180150915235	307.98092643526
12	244	3.180454915235	307.98689773938
12	253	3.180604915235	307.98984410654
12	259	3.181276915235	308.00304383144
12	273	3.181287018097	308.00324227638
12	282	3.181591120965	308.00921560108
12	290	3.181681018097	308.0109814008
12	297	3.182353120969	308.02418314635
12	308	3.182363120969	308.02437957083
12	316	3.182667120969	308.03035087495
12	339	3.195254009217	308.27758816985
12	342	3.195255296771	308.27761346056
12	356	3.195305296771	308.27859558295
12	360	3.237295456952	309.10338511083
12	365	3.337295456952	311.06762988704
12	366	3.338392009967	311.08916887236
12	380	3.411053481512	312.2301222532
12	383	3.411054692356	312.23014126626
12	397	3.411104692356	312.23092638205
12	400	3.438392009967	312.65940046358
12	405	3.538392009967	314.22963205479
12	410	3.638392009967	315.79986364601
12	415	3.738392009967	317.37009523723
12	420	3.838392009967	318.94032682845
12	432	3.860757459886	319.29151618859
12	436	3.860758480853	319.29153222014
12	450	3.860808480853	319.29231733593
12	454	3.938392009967	320.51055841966
12	464	4.038392009967	322.08079001088
12	470	4.138392009967	323.6510216021
12	481	4.179532709531	324.2970258635
12	487	4.180204709531	324.30757781979
12	501	4.180214780192	324.30773595249
12	510	4.18051885084	324.31251056587
12	518	4.180568780192	324.31329457233
12	525	4.181240850834	324.32384763786
12	536	4.181250850834	324.32400466102
12	544	4.181554850834	324.32877816506
12	565	4.195254009217	324.54388667772
12	569	4.195255381619	324.54390822761
12	583	4.195305381619	324.5446933434
12	586	4.238392009967	325.22125319331
12	591	4.338392009967	326.79148478453
12	606	4.411053481512	327.93243816538
12	610	4.411054837463	327.93245945695
12	624	4.411104837463	327.93324457274
12	626	4.438392009967	328.36171637575
12	631	4.538392009967	329.93194796697
12	636	4.638392009967	331.50217955818
12	641	4.738392009967	333.0724111494
12	646	4.838392009967	334.64264274062
12	658	4.860757459886	334.99383210077
12	662	4.860758489668	334.99384827073
12	676	4.860808489668	334.99463338652
12	681	4.938392009967	336.21287433184
12	692	5.038392009967	337.78310592305
12	697	5.138392009967	339.35333751427
12	708	5.179532709531	339.99934177567
12	714	5.180204709531	340.00989373197
12	728	5.180214794177	340.01005208426
12	737	5.180518878848	340.01482691783
12	745	5.180708794177	340.01780902832
12	752	5.181380878865	340.02836231441
12	763	5.181390878865	340.02851933757
12	771	5.181694878865	340.03329284161
12	792	5.195254009217	340.24620258989
12	796	5.195255501316	340.2462260193
12	810	5.195305501316	340.2470111351
12	813	5.238392009967	340.92356910549
12	818	5.338392009967	342.49380069671
12	833	5.411053481512	343.63475407755
[...]
28	545	4.181554921463	3
28	545	4.181554921463	3
28	546	4.181554921463	3
28	546	4.181554921463	0
28	709	5.179532794177	0
28	709	5.179532794177	0
28	715	5.180204794177	0
28	715	5.180204794177	0
28	722	5.180204794177	0
28	722	5.180204794177	2
28	727	5.180214794177	2
28	727	5.180214794177	1
28	736	5.180518794177	1
28	736	5.180518794177	2
28	742	5.180708794177	2
28	742	5.180708794177	3
28	744	5.180708794177	3
28	744	5.180708794177	3
28	772	5.181694963577	3
28	772	5.181694963577	3
28	773	5.181694963577	3
28	773	5.181694963577	0
28	937	6.179532817411	0
28	937	6.179532817411	0
28	943	6.180204817411	0
28	943	6.180204817411	0
28	950	6.180204817411	0
28	950	6.180204817411	2
28	955	6.180214817411	2
28	955	6.180214817411	1
28	964	6.180518817411	1
28	964	6.180518817411	2
28	970	6.180668817411	2
28	970	6.180668817411	3
28	972	6.180668817411	3
28	972	6.180668817411	3
28	1001	6.181655033054	3
28	1001	6.181655033054	3
28	1002	6.181655033054	3
28	1002	6.181655033054	0
28	1164	7.17953279531	0
28	1164	7.17953279531	0
28	1170	7.18020479531	0
28	1170	7.18020479531	0
28	1177	7.18020479531	0
28	1177	7.18020479531	2
28	1182	7.18021479531	2
28	1182	7.18021479531	1
28	1191	7.18051879531	1
28	1191	7.18051879531	2
28	1197	7.18064879531	2
28	1197	7.18064879531	3
28	1199	7.18064879531	3
28	1199	7.18064879531	3
28	1228	7.181634966945	3
28	1228	7.181634966945	3
28	1229	7.181634966945	3
28	1229	7.181634966945	0
32	330	3.195254009217	0
32	555	4.195254009217	1
32	782	5.195254009217	2
32	1010	6.195254009217	3
39	332	3.195254009217	1
39	556	4.195254009217	1
39	783	5.195254009217	1
39	1013	6.195254009217	1
44	388	3.411103595495	64
44	445	3.860807857019	64
44	614	4.411103613255	64
44	671	4.860807982987	64
44	841	5.411103692708	64
44	898	5.860808092232	64
44	1069	6.411103719496	64
44	1125	6.860808118212	64
45	337	3.195254009217	64
45	563	4.195254009217	64
45	790	5.195254009217	64
45	1018	6.195254009217	64
46	335	3.195254009217	64
46	561	4.195254009217	64
46	788	5.195254009217	64
46	1016	6.195254009217	64
47	388	3.411103595495	64
47	445	3.860807857019	64
47	614	4.411103613255	64
47	671	4.860807982987	64
47	841	5.411103692708	64
47	898	5.860808092232	64
47	1069	6.411103719496	64
47	1125	6.860808118212	64
48	0	0	0
48	0	0	2
48	338	3.195254009217	3
48	345	3.195304009217	2
48	564	4.195254009217	3
48	571	4.195304009217	2
48	791	5.195254009217	3
48	798	5.195304009217	2
48	1019	6.195254009217	3
48	1026	6.195304009217	2
49	0	0	1
49	338	3.195254009217	0
49	345	3.195304009217	1
49	381	3.411053595495	3
49	387	3.411103595495	1
49	434	3.860757857019	3
49	444	3.860807857019	1
49	564	4.195254009217	0
49	571	4.195304009217	1
49	607	4.411053613255	3
49	613	4.411103613255	1
49	660	4.860757982987	3
49	670	4.860807982987	1
49	791	5.195254009217	0
49	798	5.195304009217	1
49	834	5.411053692708	3
49	840	5.411103692708	1
49	887	5.860758092232	3
49	897	5.860808092232	1
49	1019	6.195254009217	0
49	1026	6.195304009217	1
49	1062	6.411053719496	3
49	1068	6.411103719496	1
49	1114	6.860758118212	3
49	1124	6.860808118212	1
50	338	3.195254009217	1
50	339	3.195254009217	2
50	344	3.195304009217	1
50	345	3.195304009217	0
50	564	4.195254009217	1
50	565	4.195254009217	2
50	570	4.195304009217	1
50	571	4.195304009217	0
50	791	5.195254009217	1
50	792	5.195254009217	2
50	797	5.195304009217	1
50	798	5.195304009217	0
50	1019	6.195254009217	1
50	1020	6.195254009217	2
50	1025	6.195304009217	1
50	1026	6.195304009217	0
51	0	0	0
52	0	0	0
52	0	0	0
52	0	0	0
52	0	0	0
52	335	3.195254009217	0
52	335	3.195254009217	2
52	336	3.195254009217	2
52	336	3.195254009217	3
52	338	3.195254009217	3
52	338	3.195254009217	3
52	344	3.195304009217	3
52	344	3.195304009217	0
52	345	3.195304009217	0
52	345	3.195304009217	0
52	381	3.411053595495	0
52	381	3.411053595495	0
52	387	3.411103595495	0
52	387	3.411103595495	0
52	434	3.860757857019	0
52	434	3.860757857019	0
52	444	3.860807857019	0
52	444	3.860807857019	0
52	561	4.195254009217	0
52	561	4.195254009217	2
52	562	4.195254009217	2
52	562	4.195254009217	3
52	564	4.195254009217	3
52	564	4.195254009217	3
52	570	4.195304009217	3
52	570	4.195304009217	0
52	571	4.195304009217	0
52	571	4.195304009217	0
52	607	4.411053613255	0
52	607	4.411053613255	0
52	613	4.411103613255	0
52	613	4.411103613255	0
52	660	4.860757982987	0
52	660	4.860757982987	0
52	670	4.860807982987	0
52	670	4.860807982987	0
52	788	5.195254009217	0
52	788	5.195254009217	2
52	789	5.195254009217	2
52	789	5.195254009217	3
52	791	5.195254009217	3
52	791	5.195254009217	3
52	797	5.195304009217	3
52	797	5.195304009217	0
52	798	5.195304009217	0
52	798	5.195304009217	0
52	834	5.411053692708	0
52	834	5.411053692708	0
52	840	5.411103692708	0
52	840	5.411103692708	0
52	887	5.860758092232	0
52	887	5.860758092232	0
52	897	5.860808092232	0
52	897	5.860808092232	0
52	1016	6.195254009217	0
52	1016	6.195254009217	2
52	1017	6.195254009217	2
52	1017	6.195254009217	3
52	1019	6.195254009217	3
52	1019	6.195254009217	3
52	1025	6.195304009217	3
52	1025	6.195304009217	0
52	1026	6.195304009217	0
52	1026	6.195304009217	0
52	1062	6.411053719496	0
52	1062	6.411053719496	0
52	1068	6.411103719496	0
52	1068	6.411103719496	0
52	1114	6.860758118212	0
52	1114	6.860758118212	0
52	1124	6.860808118212	0
52	1124	6.860808118212	0
56	423	3.860757459886	0
56	648	4.860757459886	1
56	875	5.860757459886	2
56	1102	6.860757459886	3
63	425	3.860757459886	1
63	649	4.860757459886	1
63	876	5.860757459886	1
63	1105	6.860757459886	1
68	352	3.195304367437	64
68	393	3.411103739076	64
68	578	4.19530444054	64
68	619	4.411103847923	64
68	805	5.195304578463	64
68	846	5.411103959347	64
68	1033	6.195304637174	64
68	1074	6.411104068322	64
69	430	3.860757459886	64
69	656	4.860757459886	64
69	883	5.860757459886	64
69	1110	6.860757459886	64
70	428	3.860757459886	64
70	654	4.860757459886	64
70	881	5.860757459886	64
70	1108	6.860757459886	64
71	352	3.195304367437	64
71	393	3.411103739076	64
71	578	4.19530444054	64
71	619	4.411103847923	64
71	805	5.195304578463	64
71	846	5.411103959347	64
71	1033	6.195304637174	64
71	1074	6.411104068322	64
72	0	0	0
72	0	0	2
72	431	3.860757459886	3
72	438	3.860807459886	2
72	657	4.860757459886	3
72	664	4.860807459886	2
72	884	5.860757459886	3
72	891	5.860807459886	2
72	1111	6.860757459886	3
72	1118	6.860807459886	2
73	0	0	1
73	341	3.195254367437	3
73	351	3.195304367437	1
73	382	3.411053739076	3
73	392	3.411103739076	1
73	431	3.860757459886	0
73	438	3.860807459886	1
73	567	4.19525444054	3
73	577	4.19530444054	1
73	608	4.411053847923	3
73	618	4.411103847923	1
73	657	4.860757459886	0
73	664	4.860807459886	1
73	794	5.195254578463	3
73	804	5.195304578463	1
73	835	5.411053959347	3
73	845	5.411103959347	1
73	884	5.860757459886	0
73	891	5.860807459886	1
73	1022	6.195254637174	3
73	1032	6.195304637174	1
73	1063	6.411054068322	3
73	1073	6.411104068322	1
73	1111	6.860757459886	0
73	1118	6.860807459886	1
74	431	3.860757459886	1
74	432	3.860757459886	2
74	437	3.860807459886	1
74	438	3.860807459886	0
74	657	4.860757459886	1
74	658	4.860757459886	2
74	663	4.860807459886	1
74	664	4.860807459886	0
74	884	5.860757459886	1
74	885	5.860757459886	2
74	890	5.860807459886	1
74	891	5.860807459886	0
74	1111	6.860757459886	1
74	1112	6.860757459886	2
74	1117	6.860807459886	1
74	1118	6.860807459886	0
75	0	0	0
76	0	0	0
76	0	0	0
76	0	0	0
76	0	0	0
76	341	3.195254367437	0
76	341	3.195254367437	0
76	351	3.195304367437	0
76	351	3.195304367437	0
76	382	3.411053739076	0
76	382	3.411053739076	0
76	392	3.411103739076	0
76	392	3.411103739076	0
76	428	3.860757459886	0
76	428	3.860757459886	2
76	429	3.860757459886	2
76	429	3.860757459886	3
76	431	3.860757459886	3
76	431	3.860757459886	3
76	437	3.860807459886	3
76	437	3.860807459886	0
76	438	3.860807459886	0
76	438	3.860807459886	0
76	567	4.19525444054	0
76	567	4.19525444054	0
76	577	4.19530444054	0
76	577	4.19530444054	0
76	608	4.411053847923	0
76	608	4.411053847923	0
76	618	4.411103847923	0
76	618	4.411103847923	0
76	654	4.860757459886	0
76	654	4.860757459886	2
76	655	4.860757459886	2
76	655	4.860757459886	3
76	657	4.860757459886	3
76	657	4.860757459886	3
76	663	4.860807459886	3
76	663	4.860807459886	0
76	664	4.860807459886	0
76	664	4.860807459886	0
76	794	5.195254578463	0
76	794	5.195254578463	0
76	804	5.195304578463	0
76	804	5.195304578463	0
76	835	5.411053959347	0
76	835	5.411053959347	0
76	845	5.411103959347	0
76	845	5.411103959347	0
76	881	5.860757459886	0
76	881	5.860757459886	2
76	882	5.860757459886	2
76	882	5.860757459886	3
76	884	5.860757459886	3
76	884	5.860757459886	3
76	890	5.860807459886	3
76	890	5.860807459886	0
76	891	5.860807459886	0
76	891	5.860807459886	0
76	1022	6.195254637174	0
76	1022	6.195254637174	0
76	1032	6.195304637174	0
76	1032	6.195304637174	0
76	1063	6.411054068322	0
76	1063	6.411054068322	0
76	1073	6.411104068322	0
76	1073	6.411104068322	0
76	1108	6.860757459886	0
76	1108	6.860757459886	2
76	1109	6.860757459886	2
76	1109	6.860757459886	3
76	1111	6.860757459886	3
76	1111	6.860757459886	3
76	1117	6.860807459886	3
76	1117	6.860807459886	0
76	1118	6.860807459886	0
76	1118	6.860807459886	0
80	371	3.411053481512	0
80	596	4.411053481512	1
80	823	5.411053481512	2
80	1051	6.411053481512	3
87	373	3.411053481512	1
87	597	4.411053481512	1
87	824	5.411053481512	1
87	1054	6.411053481512	1
92	347	3.195304132509	64
92	440	3.860807766325	64
92	573	4.195304124574	64
92	666	4.860807875991	64
92	800	5.195304202976	64
92	893	5.86080798014	64
92	1028	6.195304237339	64
92	1120	6.860808105657	64
93	378	3.411053481512	64
93	604	4.411053481512	64
93	831	5.411053481512	64
93	1059	6.411053481512	64
94	376	3.411053481512	64
94	602	4.411053481512	64
94	829	5.411053481512	64
94	1057	6.411053481512	64
95	347	3.195304132509	64
95	440	3.860807766325	64
95	573	4.195304124574	64
95	666	4.860807875991	64
95	800	5.195304202976	64
95	893	5.86080798014	64
95	1028	6.195304237339	64
95	1120	6.860808105657	64
96	0	0	0
96	0	0	2
96	379	3.411053481512	3
96	386	3.411103481512	2
96	605	4.411053481512	3
96	612	4.411103481512	2
96	832	5.411053481512	3
96	839	5.411103481512	2
96	1060	6.411053481512	3
96	1067	6.411103481512	2
97	0	0	1
97	340	3.195254132509	3
97	346	3.195304132509	1
97	379	3.411053481512	0
97	386	3.411103481512	1
97	433	3.860757766325	3
97	439	3.860807766325	1
97	566	4.195254124574	3
97	572	4.195304124574	1
97	605	4.411053481512	0
97	612	4.411103481512	1
97	659	4.860757875991	3
97	665	4.860807875991	1
97	793	5.195254202976	3
97	799	5.195304202976	1
97	832	5.411053481512	0
97	839	5.411103481512	1
97	886	5.86075798014	3
97	892	5.86080798014	1
97	1021	6.195254237339	3
97	1027	6.195304237339	1
97	1060	6.411053481512	0
97	1067	6.411103481512	1
97	1113	6.860758105657	3
97	1119	6.860808105657	1
98	379	3.411053481512	1
98	380	3.411053481512	2
98	385	3.411103481512	1
98	386	3.411103481512	0
98	605	4.411053481512	1
98	606	4.411053481512	2
98	611	4.411103481512	1
98	612	4.411103481512	0
98	832	5.411053481512	1
98	833	5.411053481512	2
98	838	5.411103481512	1
98	839	5.411103481512	0
98	1060	6.411053481512	1
98	1061	6.411053481512	2
98	1066	6.411103481512	1
98	1067	6.411103481512	0
99	0	0	0
100	0	0	0
100	0	0	0
100	0	0	0
100	0	0	0
100	340	3.195254132509	0
100	340	3.195254132509	0
100	346	3.195304132509	0
100	346	3.195304132509	0
100	376	3.411053481512	0
100	376	3.411053481512	2
100	377	3.411053481512	2
100	377	3.411053481512	3
100	379	3.411053481512	3
100	379	3.411053481512	3
100	385	3.411103481512	3
100	385	3.411103481512	0
100	386	3.411103481512	0
100	386	3.411103481512	0
100	433	3.860757766325	0
100	433	3.860757766325	0
100	439	3.860807766325	0
100	439	3.860807766325	0
100	566	4.195254124574	0
100	566	4.195254124574	0
100	572	4.195304124574	0
100	572	4.195304124574	0
100	602	4.411053481512	0
100	602	4.411053481512	2
100	603	4.411053481512	2
100	603	4.411053481512	3
100	605	4.411053481512	3
100	605	4.411053481512	3
100	611	4.411103481512	3
100	611	4.411103481512	0
100	612	4.411103481512	0
100	612	4.411103481512	0
100	659	4.860757875991	0
100	659	4.860757875991	0
100	665	4.860807875991	0
100	665	4.860807875991	0
100	793	5.195254202976	0
100	793	5.195254202976	0
100	799	5.195304202976	0
100	799	5.195304202976	0
100	829	5.411053481512	0
100	829	5.411053481512	2
100	830	5.411053481512	2
100	830	5.411053481512	3
100	832	5.411053481512	3
100	832	5.411053481512	3
100	838	5.411103481512	3
100	838	5.411103481512	0
100	839	5.411103481512	0
100	839	5.411103481512	0
100	886	5.86075798014	0
100	886	5.86075798014	0
100	892	5.86080798014	0
100	892	5.86080798014	0
100	1021	6.195254237339	0
100	1021	6.195254237339	0
100	1027	6.195304237339	0
100	1027	6.195304237339	0
100	1057	6.411053481512	0
100	1057	6.411053481512	2
100	1058	6.411053481512	2
100	1058	6.411053481512	3
100	1060	6.411053481512	3
100	1060	6.411053481512	3
100	1066	6.411103481512	3
100	1066	6.411103481512	0
100	1067	6.411103481512	0
100	1067	6.411103481512	0
100	1113	6.860758105657	0
100	1113	6.860758105657	0
100	1119	6.860808105657	0
100	1119	6.860808105657	0
101	302	3.182353120969	0.002820411438
101	530	4.181240850834	0.001708141303
101	757	5.181380878865	0.001848169334
101	986	6.181340925246	0.001808215715
101	1213	7.181320881118	0.001788171587
104	187	3.179532709531	0
104	473	4.179532709531	1
104	700	5.179532709531	2
104	928	6.179532709531	3
104	1155	7.179532709531	4
105	302	3.182353120969	0
105	530	4.181240850834	1
105	757	5.181380878865	2
105	986	6.181340925246	3
105	1213	7.181320881118	4
111	189	3.179532709531	1
116	225	3.180140915235	64
116	298	3.182353120969	120
116	526	4.181240850834	120
116	753	5.181380878865	120
116	982	6.181340925246	120
116	1209	7.181320881118	120
117	194	3.179532709531	64
117	234	3.180150915235	14
117	251	3.180604915235	120
117	306	3.182363120969	14
117	479	4.179532709531	120
117	534	4.181250850834	14
117	706	5.179532709531	120
117	761	5.181390878865	14
117	934	6.179532709531	120
117	990	6.181350925246	14
117	1161	7.179532709531	120
117	1217	7.181330881118	14
118	192	3.179532709531	64
118	230	3.180140915235	120
118	477	4.179532709531	120
118	704	5.179532709531	120
118	932	6.179532709531	120
118	1159	7.179532709531	120
119	225	3.180140915235	64
119	283	3.181591120965	14
119	298	3.182353120969	120
119	511	4.18051885084	14
119	526	4.181240850834	120
119	738	5.180518878848	14
119	753	5.181380878865	120
119	966	6.180518925264	14
119	982	6.181340925246	120
119	1193	7.180518881107	14
119	1209	7.181320881118	120
120	0	0	0
120	0	0	2
120	195	3.179532709531	3
120	202	3.179582709531	2
120	235	3.180150915235	3
120	244	3.180454915235	2
120	252	3.180604915235	3
120	259	3.181276915235	2
120	307	3.182363120969	3
120	316	3.182667120969	2
120	480	4.179532709531	3
120	487	4.180204709531	2
120	535	4.181250850834	3
120	544	4.181554850834	2
120	707	5.179532709531	3
120	714	5.180204709531	2
120	762	5.181390878865	3
120	771	5.181694878865	2
120	935	6.179532709531	3
120	942	6.180204709531	2
120	991	6.181350925246	3
120	1000	6.181654925246	2
120	1162	7.179532709531	3
120	1169	7.180204709531	2
120	1218	7.181330881118	3
120	1227	7.181634881118	2
121	0	0	1
121	195	3.179532709531	0
121	202	3.179582709531	1
121	218	3.179692915235	3
121	224	3.180140915235	1
121	235	3.180150915235	0
121	244	3.180454915235	1
121	252	3.180604915235	0
121	259	3.181276915235	1
121	274	3.181287120965	3
121	282	3.181591120965	1
121	291	3.181681120969	3
121	297	3.182353120969	1
121	307	3.182363120969	0
121	316	3.182667120969	1
121	480	4.179532709531	0
121	487	4.180204709531	1
121	502	4.18021485084	3
121	510	4.18051885084	1
121	519	4.180568850834	3
121	525	4.181240850834	1
121	535	4.181250850834	0
121	544	4.181554850834	1
121	707	5.179532709531	0
121	714	5.180204709531	1
121	729	5.180214878848	3
121	737	5.180518878848	1
121	746	5.180708878865	3
121	752	5.181380878865	1
121	762	5.181390878865	0
121	771	5.181694878865	1
121	935	6.179532709531	0
121	942	6.180204709531	1
121	957	6.180214925264	3
121	965	6.180518925264	1
121	974	6.180668925246	3
121	981	6.181340925246	1
121	991	6.181350925246	0
121	1000	6.181654925246	1
121	1162	7.179532709531	0
121	1169	7.180204709531	1
121	1184	7.180214881107	3
121	1192	7.180518881107	1
121	1201	7.180648881118	3
121	1208	7.181320881118	1
121	1218	7.181330881118	0
121	1227	7.181634881118	1
122	195	3.179532709531	1
122	196	3.179532709531	2
122	201	3.179582709531	1
122	202	3.179582709531	0
122	235	3.180150915235	1
122	236	3.180150915235	2
122	243	3.180454915235	1
122	244	3.180454915235	0
122	252	3.180604915235	1
122	253	3.180604915235	2
122	258	3.181276915235	1
122	259	3.181276915235	0
122	307	3.182363120969	1
122	308	3.182363120969	2
122	315	3.182667120969	1
122	316	3.182667120969	0
122	480	4.179532709531	1
122	481	4.179532709531	2
122	486	4.180204709531	1
122	487	4.180204709531	0
122	535	4.181250850834	1
122	536	4.181250850834	2
122	543	4.181554850834	1
122	544	4.181554850834	0
122	707	5.179532709531	1
122	708	5.179532709531	2
122	713	5.180204709531	1
122	714	5.180204709531	0
122	762	5.181390878865	1
122	763	5.181390878865	2
122	770	5.181694878865	1
122	771	5.181694878865	0
122	935	6.179532709531	1
122	936	6.179532709531	2
122	941	6.180204709531	1
122	942	6.180204709531	0
122	991	6.181350925246	1
122	992	6.181350925246	2
122	999	6.181654925246	1
122	1000	6.181654925246	0
122	1162	7.179532709531	1
122	1163	7.179532709531	2
122	1168	7.180204709531	1
122	1169	7.180204709531	0
122	1218	7.181330881118	1
122	1219	7.181330881118	2
122	1226	7.181634881118	1
122	1227	7.181634881118	0
123	0	0	0
124	0	0	0
124	0	0	0
124	0	0	0
124	0	0	0
124	192	3.179532709531	0
124	192	3.179532709531	2
124	193	3.179532709531	2
124	193	3.179532709531	3
124	195	3.179532709531	3
124	195	3.179532709531	3
124	201	3.179582709531	3
124	201	3.179582709531	0
124	202	3.179582709531	0
124	202	3.179582709531	0
124	218	3.179692915235	0
124	218	3.179692915235	0
124	224	3.180140915235	0
124	224	3.180140915235	0
124	230	3.180140915235	0
124	230	3.180140915235	2
124	235	3.180150915235	2
124	235	3.180150915235	1
124	244	3.180454915235	1
124	244	3.180454915235	2
124	250	3.180604915235	2
124	250	3.180604915235	3
124	252	3.180604915235	3
124	252	3.180604915235	3
124	282	3.181591120965	3
124	282	3.181591120965	3
124	283	3.181591120965	3
124	283	3.181591120965	0
124	291	3.181681120969	0
124	291	3.181681120969	0
124	297	3.182353120969	0
124	297	3.182353120969	0
124	307	3.182363120969	0
124	307	3.182363120969	0
124	316	3.182667120969	0
124	316	3.182667120969	0
124	477	4.179532709531	0
124	477	4.179532709531	2
124	478	4.179532709531	2
124	478	4.179532709531	3
124	480	4.179532709531	3
124	480	4.179532709531	3
124	510	4.18051885084	3
124	510	4.18051885084	3
124	511	4.18051885084	3
124	511	4.18051885084	0
124	519	4.180568850834	0
124	519	4.180568850834	0
124	525	4.181240850834	0
124	525	4.181240850834	0
124	535	4.181250850834	0
124	535	4.181250850834	0
124	544	4.181554850834	0
124	544	4.181554850834	0
124	704	5.179532709531	0
124	704	5.179532709531	2
124	705	5.179532709531	2
124	705	5.179532709531	3
124	707	5.179532709531	3
124	707	5.179532709531	3
124	737	5.180518878848	3
124	737	5.180518878848	3
124	738	5.180518878848	3
124	738	5.180518878848	0
124	746	5.180708878865	0
124	746	5.180708878865	0
124	752	5.181380878865	0
124	752	5.181380878865	0
124	762	5.181390878865	0
124	762	5.181390878865	0
124	771	5.181694878865	0
124	771	5.181694878865	0
124	932	6.179532709531	0
124	932	6.179532709531	2
124	933	6.179532709531	2
124	933	6.179532709531	3
124	935	6.179532709531	3
124	935	6.179532709531	3
124	965	6.180518925264	3
124	965	6.180518925264	3
124	966	6.180518925264	3
124	966	6.180518925264	0
124	974	6.180668925246	0
124	974	6.180668925246	0
124	981	6.181340925246	0
124	981	6.181340925246	0
124	991	6.181350925246	0
124	991	6.181350925246	0
124	1000	6.181654925246	0
124	1000	6.181654925246	0
124	1159	7.179532709531	0
124	1159	7.179532709531	2
124	1160	7.179532709531	2
124	1160	7.179532709531	3
124	1162	7.179532709531	3
124	1162	7.179532709531	3
124	1192	7.180518881107	3
124	1192	7.180518881107	3
124	1193	7.180518881107	3
124	1193	7.180518881107	0
124	1201	7.180648881118	0
124	1201	7.180648881118	0
124	1208	7.181320881118	0
124	1208	7.181320881118	0
124	1218	7.181330881118	0
124	1218	7.181330881118	0
124	1227	7.181634881118	0
124	1227	7.181634881118	0
