file 116076 1470997381                                          
version 2
run Ping2-0-20160812-12:22:46-5571
attr configname Ping2
attr datetime 20160812-12:22:46
attr experiment Ping2
attr inifile omnetpp.ini
attr iterationvars ""
attr iterationvars2 $repetition=0
attr measurement ""
attr network Net80211test
attr processid 5571
attr repetition 0
attr replication #0
attr resultdir results
attr runnumber 0
attr seedset 0
param **.constraintAreaMaxX 600m
param **.constraintAreaMaxY 400m
param **.constraintAreaMaxZ 0m
param **.constraintAreaMinX 0m
param **.constraintAreaMinY 0m
param **.constraintAreaMinZ 0m
param **.host*.mobility.changeAngleBy "normal(0deg, 30deg)"
param **.host*.mobility.changeInterval "truncnormal(2s, 0.5s)"
param **.host*.mobility.initFromDisplayString false
param **.host*.mobility.speed "truncnormal(20mps, 8mps)"
param **.host*.mobility.updateInterval 100ms
param **.host*.mobilityType "\"MassMobility\""
param **.pingApp[*].printPing true
param **.pingApp[0].startTime uniform(1s,5s)
param **.pingApp[1].startTime 5s+uniform(1s,5s)
param **.wlan[*].bitrate 2Mbps
param **.wlan[*].mac.address "\"auto\""
param **.wlan[*].mac.cwMinBroadcast 31
param **.wlan[*].mac.cwMinData 7
param **.wlan[*].mac.maxQueueSize 14
param **.wlan[*].mac.retryLimit 7
param **.wlan[*].mac.rtsThresholdBytes 3000B
param **.wlan[*].mgmt.frameCapacity 10
param **.wlan[*].radio.receiver.sensitivity -85dBm
param **.wlan[*].radio.receiver.snirThreshold 4dB
param **.wlan[*].radio.transmitter.power 2mW
param *.host[*].numPingApps 2
param *.host[*].pingApp[*].destAddr "\"host[0]\""
param *.host[0].numPingApps 0

vector 28  Net80211test.host[0].wlan[0].mac.ctn[0]  state:vector  ETV
attr interpolationmode  none
attr source  stateChanged
attr title  "contention state, vector"
vector 52  Net80211test.host[1].wlan[0].mac.ctn[0]  state:vector  ETV
attr interpolationmode  none
attr source  stateChanged
attr title  "contention state, vector"
vector 76  Net80211test.host[2].wlan[0].mac.ctn[0]  state:vector  ETV
attr interpolationmode  none
attr source  stateChanged
attr title  "contention state, vector"
vector 100  Net80211test.host[3].wlan[0].mac.ctn[0]  state:vector  ETV
attr interpolationmode  none
attr source  stateChanged
attr title  "contention state, vector"
vector 124  Net80211test.host[4].wlan[0].mac.ctn[0]  state:vector  ETV
attr interpolationmode  none
attr source  stateChanged
attr title  "contention state, vector"
vector 0  Net80211test.host[0]  coordX:vector  ETV
attr interpolationmode  linear
attr source  xCoord(mobilityPos(mobilityStateChanged))
attr title  "coord X, vector"
vector 1  Net80211test.host[0]  coordY:vector  ETV
attr interpolationmode  linear
attr source  yCoord(mobilityPos(mobilityStateChanged))
attr title  "coord Y, vector"
vector 2  Net80211test.host[0]  coordZ:vector  ETV
attr interpolationmode  linear
attr source  zCoord(mobilityPos(mobilityStateChanged))
attr title  "coord Z, vector"
vector 3  Net80211test.host[1]  coordX:vector  ETV
attr interpolationmode  linear
attr source  xCoord(mobilityPos(mobilityStateChanged))
attr title  "coord X, vector"
vector 4  Net80211test.host[1]  coordY:vector  ETV
attr interpolationmode  linear
attr source  yCoord(mobilityPos(mobilityStateChanged))
attr title  "coord Y, vector"
vector 5  Net80211test.host[1]  coordZ:vector  ETV
attr interpolationmode  linear
attr source  zCoord(mobilityPos(mobilityStateChanged))
attr title  "coord Z, vector"
vector 6  Net80211test.host[2]  coordX:vector  ETV
attr interpolationmode  linear
attr source  xCoord(mobilityPos(mobilityStateChanged))
attr title  "coord X, vector"
vector 7  Net80211test.host[2]  coordY:vector  ETV
attr interpolationmode  linear
attr source  yCoord(mobilityPos(mobilityStateChanged))
attr title  "coord Y, vector"
vector 8  Net80211test.host[2]  coordZ:vector  ETV
attr interpolationmode  linear
attr source  zCoord(mobilityPos(mobilityStateChanged))
attr title  "coord Z, vector"
vector 9  Net80211test.host[3]  coordX:vector  ETV
attr interpolationmode  linear
attr source  xCoord(mobilityPos(mobilityStateChanged))
attr title  "coord X, vector"
vector 10  Net80211test.host[3]  coordY:vector  ETV
attr interpolationmode  linear
attr source  yCoord(mobilityPos(mobilityStateChanged))
attr title  "coord Y, vector"
vector 11  Net80211test.host[3]  coordZ:vector  ETV
attr interpolationmode  linear
attr source  zCoord(mobilityPos(mobilityStateChanged))
attr title  "coord Z, vector"
vector 12  Net80211test.host[4]  coordX:vector  ETV
attr interpolationmode  linear
attr source  xCoord(mobilityPos(mobilityStateChanged))
attr title  "coord X, vector"
vector 13  Net80211test.host[4]  coordY:vector  ETV
attr interpolationmode  linear
attr source  yCoord(mobilityPos(mobilityStateChanged))
attr title  "coord Y, vector"
vector 14  Net80211test.host[4]  coordZ:vector  ETV
attr interpolationmode  linear
attr source  zCoord(mobilityPos(mobilityStateChanged))
attr title  "coord Z, vector"
vector 24  Net80211test.host[0].wlan[0].radio  radioMode:vector  ETV
attr interpolationmode  sample-hold
attr source  radioModeChanged
attr title  "Radio mode, vector"
vector 27  Net80211test.host[0].wlan[0].radio  radioChannel:vector  ETV
attr interpolationmode  sample-hold
attr source  radioChannelChanged
attr title  "Radio channel, vector"
vector 48  Net80211test.host[1].wlan[0].radio  radioMode:vector  ETV
attr interpolationmode  sample-hold
attr source  radioModeChanged
attr title  "Radio mode, vector"
vector 51  Net80211test.host[1].wlan[0].radio  radioChannel:vector  ETV
attr interpolationmode  sample-hold
attr source  radioChannelChanged
attr title  "Radio channel, vector"
vector 72  Net80211test.host[2].wlan[0].radio  radioMode:vector  ETV
attr interpolationmode  sample-hold
attr source  radioModeChanged
attr title  "Radio mode, vector"
vector 75  Net80211test.host[2].wlan[0].radio  radioChannel:vector  ETV
attr interpolationmode  sample-hold
attr source  radioChannelChanged
attr title  "Radio channel, vector"
vector 96  Net80211test.host[3].wlan[0].radio  radioMode:vector  ETV
attr interpolationmode  sample-hold
attr source  radioModeChanged
attr title  "Radio mode, vector"
vector 99  Net80211test.host[3].wlan[0].radio  radioChannel:vector  ETV
attr interpolationmode  sample-hold
attr source  radioChannelChanged
attr title  "Radio channel, vector"
vector 120  Net80211test.host[4].wlan[0].radio  radioMode:vector  ETV
attr interpolationmode  sample-hold
attr source  radioModeChanged
attr title  "Radio mode, vector"
vector 123  Net80211test.host[4].wlan[0].radio  radioChannel:vector  ETV
attr interpolationmode  sample-hold
attr source  radioChannelChanged
attr title  "Radio channel, vector"
vector 25  Net80211test.host[0].wlan[0].radio  receptionState:vector  ETV
attr interpolationmode  sample-hold
attr source  receptionStateChanged
attr title  "Radio reception state, vector"
vector 49  Net80211test.host[1].wlan[0].radio  receptionState:vector  ETV
attr interpolationmode  sample-hold
attr source  receptionStateChanged
attr title  "Radio reception state, vector"
vector 73  Net80211test.host[2].wlan[0].radio  receptionState:vector  ETV
attr interpolationmode  sample-hold
attr source  receptionStateChanged
attr title  "Radio reception state, vector"
vector 97  Net80211test.host[3].wlan[0].radio  receptionState:vector  ETV
attr interpolationmode  sample-hold
attr source  receptionStateChanged
attr title  "Radio reception state, vector"
vector 121  Net80211test.host[4].wlan[0].radio  receptionState:vector  ETV
attr interpolationmode  sample-hold
attr source  receptionStateChanged
attr title  "Radio reception state, vector"
vector 104  Net80211test.host[4].pingApp[0]  pingTxSeq:vector  ETV
attr interpolationmode  none
attr title  "ping tx seq, vector"
vector 111  Net80211test.host[4].networkLayer.arp  sentReq:vector  ETV
attr title  "ARP request sent, vector"
vector 118  Net80211test.host[4].wlan[0].mac  rcvdPkFromHL:vector(packetBytes)  ETV
attr interpolationmode  none
attr source  packetReceivedFromUpper
attr title  "packets received from higher layer, vector(packetBytes)"
vector 117  Net80211test.host[4].wlan[0].mac  sentDownPk:vector(packetBytes)  ETV
attr interpolationmode  none
attr source  packetSentToLower
attr title  "packets sent to lower layer, vector(packetBytes)"
vector 122  Net80211test.host[4].wlan[0].radio  transmissionState:vector  ETV
attr interpolationmode  sample-hold
attr source  transmissionStateChanged
attr title  "Radio transmission state, vector"
vector 23  Net80211test.host[0].wlan[0].mac  rcvdPkFromLL:vector(packetBytes)  ETV
attr interpolationmode  none
attr source  packetReceivedFromLower
attr title  "packets received from lower layer, vector(packetBytes)"
vector 20  Net80211test.host[0].wlan[0].mac  passedUpPk:vector(packetBytes)  ETV
attr interpolationmode  none
attr source  packetSentToUpper
attr title  "packets passed to higher layer, vector(packetBytes)"
vector 16  Net80211test.host[0].networkLayer.arp  sentReply:vector  ETV
attr title  "ARP replies sent, vector"
vector 22  Net80211test.host[0].wlan[0].mac  rcvdPkFromHL:vector(packetBytes)  ETV
attr interpolationmode  none
attr source  packetReceivedFromUpper
attr title  "packets received from higher layer, vector(packetBytes)"
vector 21  Net80211test.host[0].wlan[0].mac  sentDownPk:vector(packetBytes)  ETV
attr interpolationmode  none
attr source  packetSentToLower
attr title  "packets sent to lower layer, vector(packetBytes)"
vector 26  Net80211test.host[0].wlan[0].radio  transmissionState:vector  ETV
attr interpolationmode  sample-hold
attr source  transmissionStateChanged
attr title  "Radio transmission state, vector"
vector 119  Net80211test.host[4].wlan[0].mac  rcvdPkFromLL:vector(packetBytes)  ETV
attr interpolationmode  none
attr source  packetReceivedFromLower
attr title  "packets received from lower layer, vector(packetBytes)"
vector 116  Net80211test.host[4].wlan[0].mac  passedUpPk:vector(packetBytes)  ETV
attr interpolationmode  none
attr source  packetSentToUpper
attr title  "packets passed to higher layer, vector(packetBytes)"
vector 105  Net80211test.host[4].pingApp[0]  pingRxSeq:vector  ETV
attr interpolationmode  none
attr title  "ping rx seq, vector"
vector 101  Net80211test.host[4].pingApp[0]  rtt:vector  ETV
attr interpolationmode  none
attr title  "ping round-trip time, vector"
attr unit  s
vector 32  Net80211test.host[1].pingApp[0]  pingTxSeq:vector  ETV
attr interpolationmode  none
attr title  "ping tx seq, vector"
vector 39  Net80211test.host[1].networkLayer.arp  sentReq:vector  ETV
attr title  "ARP request sent, vector"
vector 46  Net80211test.host[1].wlan[0].mac  rcvdPkFromHL:vector(packetBytes)  ETV
attr interpolationmode  none
attr source  packetReceivedFromUpper
attr title  "packets received from higher layer, vector(packetBytes)"
vector 45  Net80211test.host[1].wlan[0].mac  sentDownPk:vector(packetBytes)  ETV
attr interpolationmode  none
attr source  packetSentToLower
attr title  "packets sent to lower layer, vector(packetBytes)"
vector 50  Net80211test.host[1].wlan[0].radio  transmissionState:vector  ETV
attr interpolationmode  sample-hold
attr source  transmissionStateChanged
attr title  "Radio transmission state, vector"
vector 95  Net80211test.host[3].wlan[0].mac  rcvdPkFromLL:vector(packetBytes)  ETV
attr interpolationmode  none
attr source  packetReceivedFromLower
attr title  "packets received from lower layer, vector(packetBytes)"
vector 92  Net80211test.host[3].wlan[0].mac  passedUpPk:vector(packetBytes)  ETV
attr interpolationmode  none
attr source  packetSentToUpper
attr title  "packets passed to higher layer, vector(packetBytes)"
vector 71  Net80211test.host[2].wlan[0].mac  rcvdPkFromLL:vector(packetBytes)  ETV
attr interpolationmode  none
attr source  packetReceivedFromLower
attr title  "packets received from lower layer, vector(packetBytes)"
vector 68  Net80211test.host[2].wlan[0].mac  passedUpPk:vector(packetBytes)  ETV
attr interpolationmode  none
attr source  packetSentToUpper
attr title  "packets passed to higher layer, vector(packetBytes)"
vector 80  Net80211test.host[3].pingApp[0]  pingTxSeq:vector  ETV
attr interpolationmode  none
attr title  "ping tx seq, vector"
vector 87  Net80211test.host[3].networkLayer.arp  sentReq:vector  ETV
attr title  "ARP request sent, vector"
vector 94  Net80211test.host[3].wlan[0].mac  rcvdPkFromHL:vector(packetBytes)  ETV
attr interpolationmode  none
attr source  packetReceivedFromUpper
attr title  "packets received from higher layer, vector(packetBytes)"
vector 93  Net80211test.host[3].wlan[0].mac  sentDownPk:vector(packetBytes)  ETV
attr interpolationmode  none
attr source  packetSentToLower
attr title  "packets sent to lower layer, vector(packetBytes)"
vector 98  Net80211test.host[3].wlan[0].radio  transmissionState:vector  ETV
attr interpolationmode  sample-hold
attr source  transmissionStateChanged
attr title  "Radio transmission state, vector"
vector 47  Net80211test.host[1].wlan[0].mac  rcvdPkFromLL:vector(packetBytes)  ETV
attr interpolationmode  none
attr source  packetReceivedFromLower
attr title  "packets received from lower layer, vector(packetBytes)"
vector 44  Net80211test.host[1].wlan[0].mac  passedUpPk:vector(packetBytes)  ETV
attr interpolationmode  none
attr source  packetSentToUpper
attr title  "packets passed to higher layer, vector(packetBytes)"
vector 56  Net80211test.host[2].pingApp[0]  pingTxSeq:vector  ETV
attr interpolationmode  none
attr title  "ping tx seq, vector"
vector 63  Net80211test.host[2].networkLayer.arp  sentReq:vector  ETV
attr title  "ARP request sent, vector"
vector 70  Net80211test.host[2].wlan[0].mac  rcvdPkFromHL:vector(packetBytes)  ETV
attr interpolationmode  none
attr source  packetReceivedFromUpper
attr title  "packets received from higher layer, vector(packetBytes)"
vector 69  Net80211test.host[2].wlan[0].mac  sentDownPk:vector(packetBytes)  ETV
attr interpolationmode  none
attr source  packetSentToLower
attr title  "packets sent to lower layer, vector(packetBytes)"
vector 74  Net80211test.host[2].wlan[0].radio  transmissionState:vector  ETV
attr interpolationmode  sample-hold
attr source  transmissionStateChanged
attr title  "Radio transmission state, vector"
0	14139 5647 0 1228 0 7.181634966945 157 250.21319906227 348.39235348257 48320.170563311 14972417.563142
1	19786 5652 0 1228 0 7.181634966945 157 366.10480238567 398.87392325327 59119.05106297 22269169.945186
2	25438 3466 0 1228 0 7.181634966945 157 0 0 0 0
3	28904 5919 0 1231 0 7.181636339361 166 0.068628648295999 134.09310972496 13790.510925023 1297398.9403164
4	34823 5915 0 1231 0 7.181636339361 166 1.0233989678878 58.71554640752 5060.715192318 221625.94241611
5	40738 3605 0 1231 0 7.181636339361 166 0 0 0 0
6	44343 6066 0 1230 0 7.181635875117 169 71.890868452165 125.25499816656 16408.314154594 1647149.7077047
7	50409 6065 0 1230 0 7.181635875117 169 94.4355905056 206.9380062644 28692.908378846 4998101.7429313
8	56474 3718 0 1230 0 7.181635875117 169 0 0 0 0
9	60192 5951 0 1232 0 7.181636492687 167 47.223137624736 111.75612676889 10907.814695204 757944.06167234
10	66143 6118 0 1232 0 7.181636492687 167 15.455848140015 155.16429608688 11651.32414029 991048.09928358
11	72261 3801 0 1232 0 7.181636492687 167 0 0 0 0
12	76062 5806 0 1227 0 7.181634881118 157 238.06048119441 373.48799303433 50961.897053953 16714477.904346
13	81868 5817 0 1227 0 7.181634881118 157 350.76366660673 399.89506857638 58237.389884417 21642903.750437
14	87685 3627 0 1227 0 7.181634881118 157 0 0 0 0
16	91312 24 207 207 3.179582812382 3.179582812382 1 1 1 1 1
20	91336 155 204 1171 3.179582812382 7.18020479531 6 64 120 664 76096
21	91491 280 215 1198 3.179692812382 7.18064879531 11 14 120 734 77076
22	91771 155 210 1177 3.179582812382 7.18020479531 6 64 120 664 76096
23	91926 307 204 1229 3.179582812382 7.181634966945 12 14 120 748 77272
24	92233 546 0 1207 0 7.18132079531 24 0 3 57 147
25	92779 1116 0 1228 0 7.181634966945 47 0 3 60 132
26	93895 1056 216 1207 3.179692812382 7.18132079531 44 0 2 44 66
27	94951 9 0 0 0 0 1 0 0 0 0
28	94960 2540 0 1229 0 7.181634966945 108 0 3 162 422
32	97500 97 330 1010 3.195254009217 6.195254009217 4 0 3 6 14
39	97597 97 332 1013 3.195254009217 6.195254009217 4 1 1 4 4
44	97694 202 388 1125 3.411103595495 6.860808118212 8 64 64 512 32768
45	97896 101 337 1018 3.195254009217 6.195254009217 4 64 64 256 16384
46	97997 101 335 1016 3.195254009217 6.195254009217 4 64 64 256 16384
47	98098 202 388 1125 3.411103595495 6.860808118212 8 64 64 512 32768
48	98300 212 0 1026 0 6.195304009217 10 0 3 22 56
49	98512 591 0 1124 0 6.860808118212 25 0 3 37 85
50	99103 388 338 1026 3.195254009217 6.195304009217 16 0 2 16 24
51	99491 9 0 0 0 0 1 0 0 0 0
52	99500 1782 0 1124 0 6.860808118212 76 0 3 64 176
56	101282 97 423 1102 3.860757459886 6.860757459886 4 0 3 6 14
63	101379 97 425 1105 3.860757459886 6.860757459886 4 1 1 4 4
68	101476 201 352 1074 3.195304367437 6.411104068322 8 64 64 512 32768
69	101677 101 430 1110 3.860757459886 6.860757459886 4 64 64 256 16384
70	101778 101 428 1108 3.860757459886 6.860757459886 4 64 64 256 16384
71	101879 201 352 1074 3.195304367437 6.411104068322 8 64 64 512 32768
72	102080 212 0 1118 0 6.860807459886 10 0 3 22 56
73	102292 589 0 1118 0 6.860807459886 25 0 3 37 85
74	102881 388 431 1118 3.860757459886 6.860807459886 16 0 2 16 24
75	103269 9 0 0 0 0 1 0 0 0 0
76	103278 1778 0 1118 0 6.860807459886 76 0 3 64 176
80	105056 97 371 1051 3.411053481512 6.411053481512 4 0 3 6 14
87	105153 97 373 1054 3.411053481512 6.411053481512 4 1 1 4 4
92	105250 201 347 1120 3.195304132509 6.860808105657 8 64 64 512 32768
93	105451 101 378 1059 3.411053481512 6.411053481512 4 64 64 256 16384
94	105552 101 376 1057 3.411053481512 6.411053481512 4 64 64 256 16384
95	105653 201 347 1120 3.195304132509 6.860808105657 8 64 64 512 32768
96	105854 212 0 1067 0 6.411103481512 10 0 3 22 56
97	106066 589 0 1119 0 6.860808105657 25 0 3 37 85
98	106655 388 379 1067 3.411053481512 6.411103481512 16 0 2 16 24
99	107043 9 0 0 0 0 1 0 0 0 0
100	107052 1854 0 1119 0 6.860808105657 76 0 3 64 176
101	108906 191 302 1213 3.182353120969 7.181320881118 5 0.001708141303 0.002820411438 0.009973109377 2.0755398974281e-05
104	109097 126 187 1155 3.179532709531 7.179532709531 5 0 4 10 30
105	109223 126 302 1213 3.182353120969 7.181320881118 5 0 4 10 30
111	109349 25 189 189 3.179532709531 3.179532709531 1 1 1 1 1
116	109374 162 225 1209 3.180140915235 7.181320881118 6 64 120 664 76096
117	109536 319 194 1217 3.179532709531 7.181330881118 12 14 120 748 77272
118	109855 162 192 1159 3.179532709531 7.179532709531 6 64 120 664 76096
119	110017 292 225 1209 3.180140915235 7.181320881118 11 14 120 734 77076
120	110309 625 0 1227 0 7.181634881118 26 0 3 62 160
121	110934 1167 0 1227 0 7.181634881118 47 0 3 57 123
122	112101 1209 195 1227 3.179532709531 7.181634881118 48 0 2 48 72
123	113310 10 0 0 0 0 1 0 0 0 0
124	113320 2756 0 1227 0 7.181634881118 112 0 3 132 364
