version 2
run Ping2-0-20160704-19:39:26-4126
attr configname Ping2
attr datetime 20160704-19:39:26
attr experiment Ping2
attr inifile omnetpp.ini
attr iterationvars ""
attr iterationvars2 $repetition=0
attr measurement ""
attr network Net80211test
attr processid 4126
attr repetition 0
attr replication #0
attr resultdir results
attr runnumber 0
attr seedset 0
param **.constraintAreaMaxX 600m
param **.constraintAreaMaxY 400m
param **.constraintAreaMaxZ 0m
param **.constraintAreaMinX 0m
param **.constraintAreaMinY 0m
param **.constraintAreaMinZ 0m
param **.host*.mobility.changeAngleBy "normal(0deg, 30deg)"
param **.host*.mobility.changeInterval "truncnormal(2s, 0.5s)"
param **.host*.mobility.initFromDisplayString false
param **.host*.mobility.speed "truncnormal(20mps, 8mps)"
param **.host*.mobility.updateInterval 100ms
param **.host*.mobilityType "\"MassMobility\""
param **.pingApp[*].printPing true
param **.pingApp[0].startTime uniform(1s,5s)
param **.pingApp[1].startTime 5s+uniform(1s,5s)
param **.wlan[*].bitrate 2Mbps
param **.wlan[*].mac.address "\"auto\""
param **.wlan[*].mac.cwMinBroadcast 31
param **.wlan[*].mac.cwMinData 7
param **.wlan[*].mac.maxQueueSize 14
param **.wlan[*].mac.retryLimit 7
param **.wlan[*].mac.rtsThresholdBytes 3000B
param **.wlan[*].mgmt.frameCapacity 10
param **.wlan[*].radio.receiver.sensitivity -85dBm
param **.wlan[*].radio.receiver.snirThreshold 4dB
param **.wlan[*].radio.transmitter.power 2mW
param *.host[*].numPingApps 2
param *.host[*].pingApp[*].destAddr "\"host[0]\""
param *.host[0].numPingApps 0

vector 28  Net80211test.host[0].wlan[0].mac.ctn[0]  state:vector  ETV
attr interpolationmode  none
attr source  stateChanged
attr title  "contention state, vector"
vector 52  Net80211test.host[1].wlan[0].mac.ctn[0]  state:vector  ETV
attr interpolationmode  none
attr source  stateChanged
attr title  "contention state, vector"
vector 76  Net80211test.host[2].wlan[0].mac.ctn[0]  state:vector  ETV
attr interpolationmode  none
attr source  stateChanged
attr title  "contention state, vector"
vector 100  Net80211test.host[3].wlan[0].mac.ctn[0]  state:vector  ETV
attr interpolationmode  none
attr source  stateChanged
attr title  "contention state, vector"
vector 124  Net80211test.host[4].wlan[0].mac.ctn[0]  state:vector  ETV
attr interpolationmode  none
attr source  stateChanged
attr title  "contention state, vector"
vector 0  Net80211test.host[0]  coordX:vector  ETV
attr interpolationmode  linear
attr source  xCoord(mobilityPos(mobilityStateChanged))
attr title  "coord X, vector"
vector 1  Net80211test.host[0]  coordY:vector  ETV
attr interpolationmode  linear
attr source  yCoord(mobilityPos(mobilityStateChanged))
attr title  "coord Y, vector"
vector 2  Net80211test.host[0]  coordZ:vector  ETV
attr interpolationmode  linear
attr source  zCoord(mobilityPos(mobilityStateChanged))
attr title  "coord Z, vector"
vector 3  Net80211test.host[1]  coordX:vector  ETV
attr interpolationmode  linear
attr source  xCoord(mobilityPos(mobilityStateChanged))
attr title  "coord X, vector"
vector 4  Net80211test.host[1]  coordY:vector  ETV
attr interpolationmode  linear
attr source  yCoord(mobilityPos(mobilityStateChanged))
attr title  "coord Y, vector"
vector 5  Net80211test.host[1]  coordZ:vector  ETV
attr interpolationmode  linear
attr source  zCoord(mobilityPos(mobilityStateChanged))
attr title  "coord Z, vector"
vector 6  Net80211test.host[2]  coordX:vector  ETV
attr interpolationmode  linear
attr source  xCoord(mobilityPos(mobilityStateChanged))
attr title  "coord X, vector"
vector 7  Net80211test.host[2]  coordY:vector  ETV
attr interpolationmode  linear
attr source  yCoord(mobilityPos(mobilityStateChanged))
attr title  "coord Y, vector"
vector 8  Net80211test.host[2]  coordZ:vector  ETV
attr interpolationmode  linear
attr source  zCoord(mobilityPos(mobilityStateChanged))
attr title  "coord Z, vector"
vector 9  Net80211test.host[3]  coordX:vector  ETV
attr interpolationmode  linear
attr source  xCoord(mobilityPos(mobilityStateChanged))
attr title  "coord X, vector"
vector 10  Net80211test.host[3]  coordY:vector  ETV
attr interpolationmode  linear
attr source  yCoord(mobilityPos(mobilityStateChanged))
attr title  "coord Y, vector"
vector 11  Net80211test.host[3]  coordZ:vector  ETV
attr interpolationmode  linear
attr source  zCoord(mobilityPos(mobilityStateChanged))
attr title  "coord Z, vector"
vector 12  Net80211test.host[4]  coordX:vector  ETV
attr interpolationmode  linear
attr source  xCoord(mobilityPos(mobilityStateChanged))
attr title  "coord X, vector"
vector 13  Net80211test.host[4]  coordY:vector  ETV
attr interpolationmode  linear
attr source  yCoord(mobilityPos(mobilityStateChanged))
attr title  "coord Y, vector"
vector 14  Net80211test.host[4]  coordZ:vector  ETV
attr interpolationmode  linear
attr source  zCoord(mobilityPos(mobilityStateChanged))
attr title  "coord Z, vector"
vector 24  Net80211test.host[0].wlan[0].radio  radioMode:vector  ETV
attr interpolationmode  sample-hold
attr source  radioModeChanged
attr title  "Radio mode, vector"
vector 27  Net80211test.host[0].wlan[0].radio  radioChannel:vector  ETV
attr interpolationmode  sample-hold
attr source  radioChannelChanged
attr title  "Radio channel, vector"
vector 48  Net80211test.host[1].wlan[0].radio  radioMode:vector  ETV
attr interpolationmode  sample-hold
attr source  radioModeChanged
attr title  "Radio mode, vector"
vector 51  Net80211test.host[1].wlan[0].radio  radioChannel:vector  ETV
attr interpolationmode  sample-hold
attr source  radioChannelChanged
attr title  "Radio channel, vector"
vector 72  Net80211test.host[2].wlan[0].radio  radioMode:vector  ETV
attr interpolationmode  sample-hold
attr source  radioModeChanged
attr title  "Radio mode, vector"
vector 75  Net80211test.host[2].wlan[0].radio  radioChannel:vector  ETV
attr interpolationmode  sample-hold
attr source  radioChannelChanged
attr title  "Radio channel, vector"
vector 96  Net80211test.host[3].wlan[0].radio  radioMode:vector  ETV
attr interpolationmode  sample-hold
attr source  radioModeChanged
attr title  "Radio mode, vector"
vector 99  Net80211test.host[3].wlan[0].radio  radioChannel:vector  ETV
attr interpolationmode  sample-hold
attr source  radioChannelChanged
attr title  "Radio channel, vector"
vector 120  Net80211test.host[4].wlan[0].radio  radioMode:vector  ETV
attr interpolationmode  sample-hold
attr source  radioModeChanged
attr title  "Radio mode, vector"
vector 123  Net80211test.host[4].wlan[0].radio  radioChannel:vector  ETV
attr interpolationmode  sample-hold
attr source  radioChannelChanged
attr title  "Radio channel, vector"
vector 25  Net80211test.host[0].wlan[0].radio  receptionState:vector  ETV
attr interpolationmode  sample-hold
attr source  receptionStateChanged
attr title  "Radio reception state, vector"
vector 49  Net80211test.host[1].wlan[0].radio  receptionState:vector  ETV
attr interpolationmode  sample-hold
attr source  receptionStateChanged
attr title  "Radio reception state, vector"
vector 73  Net80211test.host[2].wlan[0].radio  receptionState:vector  ETV
attr interpolationmode  sample-hold
attr source  receptionStateChanged
attr title  "Radio reception state, vector"
vector 97  Net80211test.host[3].wlan[0].radio  receptionState:vector  ETV
attr interpolationmode  sample-hold
attr source  receptionStateChanged
attr title  "Radio reception state, vector"
vector 121  Net80211test.host[4].wlan[0].radio  receptionState:vector  ETV
attr interpolationmode  sample-hold
attr source  receptionStateChanged
attr title  "Radio reception state, vector"
vector 104  Net80211test.host[4].pingApp[0]  pingTxSeq:vector  ETV
attr interpolationmode  none
attr title  "ping tx seq, vector"
vector 111  Net80211test.host[4].networkLayer.arp  sentReq:vector  ETV
attr title  "ARP request sent, vector"
vector 118  Net80211test.host[4].wlan[0].mac  rcvdPkFromHL:vector(packetBytes)  ETV
attr interpolationmode  none
attr source  packetReceivedFromUpper
attr title  "packets received from higher layer, vector(packetBytes)"
vector 117  Net80211test.host[4].wlan[0].mac  sentDownPk:vector(packetBytes)  ETV
attr interpolationmode  none
attr source  packetSentToLower
attr title  "packets sent to lower layer, vector(packetBytes)"
vector 122  Net80211test.host[4].wlan[0].radio  transmissionState:vector  ETV
attr interpolationmode  sample-hold
attr source  transmissionStateChanged
attr title  "Radio transmission state, vector"
vector 23  Net80211test.host[0].wlan[0].mac  rcvdPkFromLL:vector(packetBytes)  ETV
attr interpolationmode  none
attr source  packetReceivedFromLower
attr title  "packets received from lower layer, vector(packetBytes)"
vector 20  Net80211test.host[0].wlan[0].mac  passedUpPk:vector(packetBytes)  ETV
attr interpolationmode  none
attr source  packetSentToUpper
attr title  "packets passed to higher layer, vector(packetBytes)"
vector 16  Net80211test.host[0].networkLayer.arp  sentReply:vector  ETV
attr title  "ARP replies sent, vector"
vector 22  Net80211test.host[0].wlan[0].mac  rcvdPkFromHL:vector(packetBytes)  ETV
attr interpolationmode  none
attr source  packetReceivedFromUpper
attr title  "packets received from higher layer, vector(packetBytes)"
vector 21  Net80211test.host[0].wlan[0].mac  sentDownPk:vector(packetBytes)  ETV
attr interpolationmode  none
attr source  packetSentToLower
attr title  "packets sent to lower layer, vector(packetBytes)"
vector 26  Net80211test.host[0].wlan[0].radio  transmissionState:vector  ETV
attr interpolationmode  sample-hold
attr source  transmissionStateChanged
attr title  "Radio transmission state, vector"
vector 119  Net80211test.host[4].wlan[0].mac  rcvdPkFromLL:vector(packetBytes)  ETV
attr interpolationmode  none
attr source  packetReceivedFromLower
attr title  "packets received from lower layer, vector(packetBytes)"
vector 116  Net80211test.host[4].wlan[0].mac  passedUpPk:vector(packetBytes)  ETV
attr interpolationmode  none
attr source  packetSentToUpper
attr title  "packets passed to higher layer, vector(packetBytes)"
vector 105  Net80211test.host[4].pingApp[0]  pingRxSeq:vector  ETV
attr interpolationmode  none
attr title  "ping rx seq, vector"
vector 101  Net80211test.host[4].pingApp[0]  rtt:vector  ETV
attr interpolationmode  none
attr title  "ping round-trip time, vector"
attr unit  s
vector 32  Net80211test.host[1].pingApp[0]  pingTxSeq:vector  ETV
attr interpolationmode  none
attr title  "ping tx seq, vector"
vector 39  Net80211test.host[1].networkLayer.arp  sentReq:vector  ETV
attr title  "ARP request sent, vector"
vector 46  Net80211test.host[1].wlan[0].mac  rcvdPkFromHL:vector(packetBytes)  ETV
attr interpolationmode  none
attr source  packetReceivedFromUpper
attr title  "packets received from higher layer, vector(packetBytes)"
vector 45  Net80211test.host[1].wlan[0].mac  sentDownPk:vector(packetBytes)  ETV
attr interpolationmode  none
attr source  packetSentToLower
attr title  "packets sent to lower layer, vector(packetBytes)"
vector 50  Net80211test.host[1].wlan[0].radio  transmissionState:vector  ETV
attr interpolationmode  sample-hold
attr source  transmissionStateChanged
attr title  "Radio transmission state, vector"
vector 95  Net80211test.host[3].wlan[0].mac  rcvdPkFromLL:vector(packetBytes)  ETV
attr interpolationmode  none
attr source  packetReceivedFromLower
attr title  "packets received from lower layer, vector(packetBytes)"
vector 92  Net80211test.host[3].wlan[0].mac  passedUpPk:vector(packetBytes)  ETV
attr interpolationmode  none
attr source  packetSentToUpper
attr title  "packets passed to higher layer, vector(packetBytes)"
vector 71  Net80211test.host[2].wlan[0].mac  rcvdPkFromLL:vector(packetBytes)  ETV
attr interpolationmode  none
attr source  packetReceivedFromLower
attr title  "packets received from lower layer, vector(packetBytes)"
vector 68  Net80211test.host[2].wlan[0].mac  passedUpPk:vector(packetBytes)  ETV
attr interpolationmode  none
attr source  packetSentToUpper
attr title  "packets passed to higher layer, vector(packetBytes)"
vector 80  Net80211test.host[3].pingApp[0]  pingTxSeq:vector  ETV
attr interpolationmode  none
attr title  "ping tx seq, vector"
vector 87  Net80211test.host[3].networkLayer.arp  sentReq:vector  ETV
attr title  "ARP request sent, vector"
vector 94  Net80211test.host[3].wlan[0].mac  rcvdPkFromHL:vector(packetBytes)  ETV
attr interpolationmode  none
attr source  packetReceivedFromUpper
attr title  "packets received from higher layer, vector(packetBytes)"
vector 93  Net80211test.host[3].wlan[0].mac  sentDownPk:vector(packetBytes)  ETV
attr interpolationmode  none
attr source  packetSentToLower
attr title  "packets sent to lower layer, vector(packetBytes)"
vector 98  Net80211test.host[3].wlan[0].radio  transmissionState:vector  ETV
attr interpolationmode  sample-hold
attr source  transmissionStateChanged
attr title  "Radio transmission state, vector"
vector 47  Net80211test.host[1].wlan[0].mac  rcvdPkFromLL:vector(packetBytes)  ETV
attr interpolationmode  none
attr source  packetReceivedFromLower
attr title  "packets received from lower layer, vector(packetBytes)"
vector 44  Net80211test.host[1].wlan[0].mac  passedUpPk:vector(packetBytes)  ETV
attr interpolationmode  none
attr source  packetSentToUpper
attr title  "packets passed to higher layer, vector(packetBytes)"
vector 56  Net80211test.host[2].pingApp[0]  pingTxSeq:vector  ETV
attr interpolationmode  none
attr title  "ping tx seq, vector"
vector 63  Net80211test.host[2].networkLayer.arp  sentReq:vector  ETV
attr title  "ARP request sent, vector"
vector 70  Net80211test.host[2].wlan[0].mac  rcvdPkFromHL:vector(packetBytes)  ETV
attr interpolationmode  none
attr source  packetReceivedFromUpper
attr title  "packets received from higher layer, vector(packetBytes)"
vector 69  Net80211test.host[2].wlan[0].mac  sentDownPk:vector(packetBytes)  ETV
attr interpolationmode  none
attr source  packetSentToLower
attr title  "packets sent to lower layer, vector(packetBytes)"
vector 74  Net80211test.host[2].wlan[0].radio  transmissionState:vector  ETV
attr interpolationmode  sample-hold
attr source  transmissionStateChanged
attr title  "Radio transmission state, vector"
0	0	0	250.21319906227
0	11	0.1	251.41487097287
0	16	0.2	252.61654288347
0	21	0.3	253.81821479407
0	26	0.4	255.01988670467
0	31	0.5	256.22155861526
0	36	0.6	257.42323052586
0	41	0.7	258.62490243646
0	46	0.8	259.82657434706
0	51	0.9	261.02824625766
0	56	1	262.22991816825
0	61	1.1	263.43159007885
0	66	1.2	264.63326198945
0	72	1.248801457852	265.21969540042
0	77	1.348801457852	266.82045138089
0	83	1.448801457852	268.42120736136
0	88	1.548801457852	270.02196334184
0	93	1.648801457852	271.62271932231
0	98	1.748801457852	273.22347530278
0	104	1.848801457852	274.82423128325
0	109	1.948801457852	276.42498726372
0	114	2.048801457852	278.02574324419
0	119	2.148801457852	279.62649922467
0	124	2.248801457852	281.22725520514
0	129	2.348801457852	282.82801118561
0	134	2.448801457852	284.42876716608
0	139	2.548801457852	286.02952314655
0	144	2.648801457852	287.63027912702
0	149	2.748801457852	289.2310351075
0	151	2.757560281494	289.37124250076
0	156	2.857560281494	290.49773204052
0	161	2.957560281494	291.62422158028
0	166	3.057560281494	292.75071112004
0	171	3.157560281494	293.8772006598
0	181	3.179532709531	294.12471776327
0	188	3.179582812382	294.12528216665
0	202	3.179692812382	294.12652130514
0	208	3.180140812382	294.13156797828
0	221	3.180150915235	294.13168178586
0	230	3.180455018092	294.13510747274
0	238	3.180604915235	294.13679604837
0	245	3.181277018097	294.14436721681
0	258	3.181287018097	294.14447986576
0	266	3.181591018097	294.14790439396
0	275	3.181681018097	294.14891823455
0	281	3.182353018097	294.15648824426
0	293	3.182363120969	294.15660205205
0	302	3.182667223848	294.16002773918
0	324	3.195254009217	294.30181655975
0	328	3.195255342617	294.30183158036
0	342	3.195305342617	294.30239482513
0	347	3.257560281494	295.00369019956
0	353	3.357560281494	296.13017973932
0	365	3.411053481512	296.73277504201
0	369	3.411054725629	296.73278905686
0	383	3.411104725629	296.73335230163
0	387	3.457560281494	297.25666927908
0	392	3.557560281494	298.38315881884
0	397	3.657560281494	299.5096483586
0	402	3.757560281494	300.63613789836
0	407	3.857560281494	301.76262743812
0	417	3.860757459886	301.79864331828
0	420	3.860758474467	301.79865474743
0	434	3.860808474467	301.7992179922
0	441	3.957560281494	302.88911697788
0	446	4.057560281494	304.01560651764
0	451	4.157560281494	305.1420960574
0	461	4.179532709531	305.38961316087
0	468	4.180204780192	305.39718396657
0	481	4.180214780192	305.39729661552
0	489	4.180518780192	305.40072114372
0	498	4.180568780192	305.40128438849
0	504	4.181240780192	305.4088543982
0	516	4.181250850834	305.40896784293
0	525	4.181554921463	305.41239316676
0	545	4.195254009217	305.56671195735
0	548	4.195255369805	305.56672728423
0	562	4.195305369805	305.567290529
0	567	4.257560281494	306.26858559716
0	572	4.357560281494	307.39507513692
1	0	0	398.87392325327
1	11	0.1	397.98838369486
1	16	0.2	397.10284413644
1	21	0.3	396.21730457803
1	26	0.4	395.33176501962
1	31	0.5	394.44622546121
1	36	0.6	393.5606859028
1	41	0.7	392.67514634439
1	46	0.8	391.78960678597
1	51	0.9	390.90406722756
1	56	1	390.01852766915
1	61	1.1	389.13298811074
1	66	1.2	388.24744855233
1	72	1.248801457852	387.81529233797
1	77	1.348801457852	387.25355002547
1	83	1.448801457852	386.69180771297
1	88	1.548801457852	386.13006540047
1	93	1.648801457852	385.56832308797
1	98	1.748801457852	385.00658077547
1	104	1.848801457852	384.44483846297
1	109	1.948801457852	383.88309615047
1	114	2.048801457852	383.32135383798
1	119	2.148801457852	382.75961152548
1	124	2.248801457852	382.19786921298
1	129	2.348801457852	381.63612690048
1	134	2.448801457852	381.07438458798
1	139	2.548801457852	380.51264227548
1	144	2.648801457852	379.95089996298
1	149	2.748801457852	379.38915765048
1	151	2.757560281494	379.33995563201
1	156	2.857560281494	379.13906119434
1	161	2.957560281494	378.93816675667
1	166	3.057560281494	378.737272319
1	171	3.157560281494	378.53637788132
1	181	3.179532709531	378.49223649558
1	188	3.179582812382	378.49213584174
1	202	3.179692812382	378.49191485785
1	208	3.180140812382	378.49101485077
1	221	3.180150915235	378.4909945547
1	230	3.180455018092	378.49038362898
1	238	3.180604915235	378.49008249396
1	245	3.181277018097	378.48873227669
1	258	3.181287018097	378.48871218725
1	266	3.181591018097	378.48810146816
1	275	3.181681018097	378.48792066316
1	281	3.182353018097	378.48657065254
1	293	3.182363120969	378.48655035643
1	302	3.182667223848	378.48593943067
1	324	3.195254009217	378.46065327898
1	328	3.195255342617	378.46065060025
1	342	3.195305342617	378.46055015303
1	347	3.257560281494	378.33548344365
1	353	3.357560281494	378.13458900598
1	365	3.411053481512	378.02712414261
1	369	3.411054725629	378.02712164325
1	383	3.411104725629	378.02702119603
1	387	3.457560281494	377.93369456831
1	392	3.557560281494	377.73280013064
1	397	3.657560281494	377.53190569297
1	402	3.757560281494	377.3310112553
1	407	3.857560281494	377.13011681763
1	417	3.860757459886	377.12369386407
1	420	3.860758474467	377.12369182584
1	434	3.860808474467	377.12359137862
1	441	3.957560281494	376.92922237996
1	446	4.057560281494	376.72832794228
1	451	4.157560281494	376.52743350461
1	461	4.179532709531	376.48329211887
1	468	4.180204780192	376.48194196629
1	481	4.180214780192	376.48192187685
1	489	4.180518780192	376.48131115776
1	498	4.180568780192	376.48121071054
1	504	4.181240780192	376.47986069992
1	516	4.181250850834	376.47984046856
1	525	4.181554921463	376.47922960758
1	545	4.195254009217	376.45170890227
1	548	4.195255369805	376.45170616892
1	562	4.195305369805	376.4516057217
1	567	4.257560281494	376.32653906694
1	572	4.357560281494	376.12564462927
2	0	0	0
2	11	0.1	0
2	16	0.2	0
2	21	0.3	0
2	26	0.4	0
2	31	0.5	0
2	36	0.6	0
2	41	0.7	0
2	46	0.8	0
2	51	0.9	0
2	56	1	0
2	61	1.1	0
2	66	1.2	0
2	72	1.248801457852	0
2	77	1.348801457852	0
2	83	1.448801457852	0
2	88	1.548801457852	0
2	93	1.648801457852	0
2	98	1.748801457852	0
2	104	1.848801457852	0
2	109	1.948801457852	0
2	114	2.048801457852	0
2	119	2.148801457852	0
2	124	2.248801457852	0
2	129	2.348801457852	0
2	134	2.448801457852	0
2	139	2.548801457852	0
2	144	2.648801457852	0
2	149	2.748801457852	0
2	151	2.757560281494	0
2	156	2.857560281494	0
2	161	2.957560281494	0
2	166	3.057560281494	0
2	171	3.157560281494	0
2	181	3.179532709531	0
2	188	3.179582812382	0
2	202	3.179692812382	0
2	208	3.180140812382	0
2	221	3.180150915235	0
2	230	3.180455018092	0
2	238	3.180604915235	0
2	245	3.181277018097	0
2	258	3.181287018097	0
2	266	3.181591018097	0
2	275	3.181681018097	0
2	281	3.182353018097	0
2	293	3.182363120969	0
2	302	3.182667223848	0
2	324	3.195254009217	0
2	328	3.195255342617	0
2	342	3.195305342617	0
2	347	3.257560281494	0
2	353	3.357560281494	0
2	365	3.411053481512	0
2	369	3.411054725629	0
2	383	3.411104725629	0
2	387	3.457560281494	0
2	392	3.557560281494	0
2	397	3.657560281494	0
2	402	3.757560281494	0
2	407	3.857560281494	0
2	417	3.860757459886	0
2	420	3.860758474467	0
2	434	3.860808474467	0
2	441	3.957560281494	0
2	446	4.057560281494	0
2	451	4.157560281494	0
2	461	4.179532709531	0
2	468	4.180204780192	0
2	481	4.180214780192	0
2	489	4.180518780192	0
2	498	4.180568780192	0
2	504	4.181240780192	0
2	516	4.181250850834	0
2	525	4.181554921463	0
2	545	4.195254009217	0
2	548	4.195255369805	0
2	562	4.195305369805	0
2	567	4.257560281494	0
2	572	4.357560281494	0
3	0	0	0.068628648295999
3	12	0.1	3.0645996071275
3	17	0.2	6.0605705659591
3	22	0.3	9.0565415247906
3	27	0.4	12.052512483622
3	32	0.5	15.048483442454
3	37	0.6	18.044454401285
3	42	0.7	21.040425360117
3	47	0.8	24.036396318948
3	52	0.9	27.03236727778
3	57	1	30.028338236611
3	62	1.1	33.024309195443
3	67	1.2	36.020280154274
3	73	1.3	39.016251113106
3	78	1.4	42.012222071938
3	84	1.5	45.008193030769
3	89	1.6	48.004163989601
3	94	1.7	51.000134948432
3	99	1.8	53.996105907264
3	105	1.884910102378	56.539987915623
3	110	1.984910102378	57.334018666275
3	115	2.084910102378	58.128049416927
3	120	2.184910102378	58.922080167579
3	125	2.284910102378	59.716110918231
3	131	2.384910102378	60.510141668883
3	136	2.484910102378	61.304172419535
3	141	2.584910102378	62.098203170187
3	146	2.684910102378	62.892233920839
3	152	2.784910102378	63.686264671491
3	157	2.884910102378	64.480295422143
3	162	2.984910102378	65.274326172795
3	167	3.084910102378	66.068356923447
3	181	3.179532709531	66.81968952131
3	185	3.179533996465	66.819699739962
3	198	3.179583996465	66.820096755337
3	202	3.179692812382	66.82096078718
3	206	3.179694145475	66.820971372348
3	218	3.180142145475	66.824528630111
3	221	3.180150915235	66.824598264702
3	225	3.180152202193	66.824608483545
3	234	3.180456202193	66.827022337027
3	238	3.180604915235	66.82820316431
3	242	3.180606202211	66.828213383295
3	255	3.181278202211	66.83354926994
3	258	3.181287018097	66.833619270786
3	262	3.181288351221	66.8336298562
3	271	3.181592351221	66.836043709682
3	275	3.181681018097	66.836747751943
3	279	3.181682351229	66.836758337421
3	290	3.182354351229	66.842094224066
3	293	3.182363120969	66.842163858498
3	297	3.182364408014	66.842174078031
3	306	3.182668408014	66.844587931513
3	307	3.184910102378	66.862387674099
3	324	3.195254009217	66.944521475219
3	330	3.195304009217	66.944918490595
3	348	3.284910102378	67.656418424751
3	354	3.384910102378	68.450449175403
3	365	3.411053481512	68.658035644986
3	372	3.411103595495	68.658433565422
3	388	3.484910102378	69.244479926055
3	393	3.584910102378	70.038510676707
3	398	3.684910102378	70.832541427359
3	403	3.784910102378	71.626572178011
3	417	3.860757459886	72.228823520181
3	429	3.860807857019	72.229223688915
3	437	3.884910102378	72.420602928663
3	442	3.978770938245	73.165886828266
3	447	4.078770938245	74.840037866283
3	452	4.178770938245	76.514188904301
3	461	4.179532709531	76.526942106193
3	465	4.179534080097	76.526965051538
3	478	4.180206080097	76.538215346513
3	481	4.180214780192	76.538360999244
3	485	4.180216139962	76.538383763848
3	494	4.180520139962	76.543473183003
3	498	4.180568780192	76.544287493919
3	502	4.180570139981	76.54431025884
3	513	4.181242139981	76.555560553816
3	516	4.181250850834	76.555706386652
3	520	4.1812522216	76.555729335345
3	529	4.1815562216	76.560818754501
3	545	4.195254009217	76.790140408076
3	551	4.195304009217	76.790977483595
3	568	4.278770938245	78.188339942319
3	573	4.378770938245	79.862490980336
4	0	0	51.249779108912
4	12	0.1	51.645859924076
4	17	0.2	52.04194073924
4	22	0.3	52.438021554404
4	27	0.4	52.834102369568
4	32	0.5	53.230183184732
4	37	0.6	53.626263999896
4	42	0.7	54.02234481506
4	47	0.8	54.418425630224
4	52	0.9	54.814506445388
4	57	1	55.210587260552
4	62	1.1	55.606668075717
4	67	1.2	56.002748890881
4	73	1.3	56.398829706045
4	78	1.4	56.794910521209
4	84	1.5	57.190991336373
4	89	1.6	57.587072151537
4	94	1.7	57.983152966701
4	99	1.8	58.379233781865
4	105	1.884910102378	58.71554640752
4	110	1.984910102378	58.025229405683
4	115	2.084910102378	57.334912403846
4	120	2.184910102378	56.644595402009
4	125	2.284910102378	55.954278400172
4	131	2.384910102378	55.263961398335
4	136	2.484910102378	54.573644396498
4	141	2.584910102378	53.883327394661
4	146	2.684910102378	53.193010392824
4	152	2.784910102378	52.502693390986
4	157	2.884910102378	51.812376389149
4	162	2.984910102378	51.122059387312
4	167	3.084910102378	50.431742385475
4	181	3.179532709531	49.778546440716
4	185	3.179533996465	49.778537556792
4	198	3.179583996465	49.778192398291
4	202	3.179692812382	49.777441223516
4	206	3.179694145475	49.777432020948
4	218	3.180142145475	49.77433940078
4	221	3.180150915235	49.774278861635
4	225	3.180152202193	49.774269977545
4	234	3.180456202193	49.77217141386
4	238	3.180604915235	49.771144822447
4	242	3.180606202211	49.771135938233
4	255	3.181278202211	49.766497007981
4	258	3.181287018097	49.766436150421
4	262	3.181288351221	49.766426947639
4	271	3.181592351221	49.764328383953
4	275	3.181681018097	49.763716301433
4	279	3.181682351229	49.763707098597
4	290	3.182354351229	49.759068168344
4	293	3.182363120969	49.759007629338
4	297	3.182364408014	49.758998744647
4	306	3.182668408014	49.756900180962
4	307	3.184910102378	49.741425383638
4	324	3.195254009217	49.670019636074
4	330	3.195304009217	49.669674477573
4	348	3.284910102378	49.051108381801
4	354	3.384910102378	48.360791379964
4	365	3.411053481512	48.180319188947
4	372	3.411103595495	48.179973243602
4	388	3.484910102378	47.670474378127
4	393	3.584910102378	46.98015737629
4	398	3.684910102378	46.289840374452
4	403	3.784910102378	45.599523372615
4	417	3.860757459886	45.075936168293
4	429	3.860807857019	45.075588268316
4	437	3.884910102378	44.909206370778
4	442	3.978770938245	44.261269062722
4	447	4.078770938245	41.717864939496
4	452	4.178770938245	39.174460816271
4	461	4.179532709531	39.155085893973
4	465	4.179534080097	39.155051034941
4	478	4.180206080097	39.137959359233
4	481	4.180214780192	39.137738080658
4	485	4.180216139962	39.137703496212
4	494	4.180520139962	39.129971547677
4	498	4.180568780192	39.128734430062
4	502	4.180570139981	39.128699845132
4	513	4.181242139981	39.111608169424
4	516	4.181250850834	39.11138661723
4	520	4.1812522216	39.111351753111
4	529	4.1815562216	39.103619804576
4	545	4.195254009217	38.755229709535
4	551	4.195304009217	38.753958007473
4	568	4.278770938245	36.631056693045
4	573	4.378770938245	34.08765256982
5	0	0	0
5	12	0.1	0
5	17	0.2	0
5	22	0.3	0
5	27	0.4	0
5	32	0.5	0
5	37	0.6	0
5	42	0.7	0
5	47	0.8	0
5	52	0.9	0
5	57	1	0
5	62	1.1	0
5	67	1.2	0
5	73	1.3	0
5	78	1.4	0
5	84	1.5	0
5	89	1.6	0
5	94	1.7	0
5	99	1.8	0
5	105	1.884910102378	0
5	110	1.984910102378	0
5	115	2.084910102378	0
5	120	2.184910102378	0
5	125	2.284910102378	0
5	131	2.384910102378	0
5	136	2.484910102378	0
5	141	2.584910102378	0
5	146	2.684910102378	0
5	152	2.784910102378	0
5	157	2.884910102378	0
5	162	2.984910102378	0
5	167	3.084910102378	0
5	181	3.179532709531	0
5	185	3.179533996465	0
5	198	3.179583996465	0
5	202	3.179692812382	0
5	206	3.179694145475	0
5	218	3.180142145475	0
5	221	3.180150915235	0
5	225	3.180152202193	0
5	234	3.180456202193	0
5	238	3.180604915235	0
5	242	3.180606202211	0
5	255	3.181278202211	0
5	258	3.181287018097	0
5	262	3.181288351221	0
5	271	3.181592351221	0
5	275	3.181681018097	0
5	279	3.181682351229	0
5	290	3.182354351229	0
5	293	3.182363120969	0
5	297	3.182364408014	0
5	306	3.182668408014	0
5	307	3.184910102378	0
5	324	3.195254009217	0
5	330	3.195304009217	0
5	348	3.284910102378	0
5	354	3.384910102378	0
5	365	3.411053481512	0
5	372	3.411103595495	0
5	388	3.484910102378	0
5	393	3.584910102378	0
5	398	3.684910102378	0
5	403	3.784910102378	0
5	417	3.860757459886	0
5	429	3.860807857019	0
5	437	3.884910102378	0
5	442	3.978770938245	0
5	447	4.078770938245	0
5	452	4.178770938245	0
5	461	4.179532709531	0
5	465	4.179534080097	0
5	478	4.180206080097	0
5	481	4.180214780192	0
5	485	4.180216139962	0
5	494	4.180520139962	0
5	498	4.180568780192	0
5	502	4.180570139981	0
5	513	4.181242139981	0
5	516	4.181250850834	0
5	520	4.1812522216	0
5	529	4.1815562216	0
5	545	4.195254009217	0
5	551	4.195304009217	0
5	568	4.278770938245	0
5	573	4.378770938245	0
6	0	0	88.053535530344
6	13	0.1	87.123797240286
6	18	0.2	86.194058950228
6	23	0.3	85.26432066017
6	28	0.4	84.334582370112
6	33	0.5	83.404844080054
6	38	0.6	82.475105789996
6	43	0.7	81.545367499938
6	48	0.8	80.61562920988
6	53	0.9	79.685890919822
6	58	1	78.756152629764
6	63	1.1	77.826414339706
6	68	1.2	76.896676049648
6	74	1.3	75.96693775959
6	79	1.4	75.037199469532
6	81	1.420142778582	74.849924344373
6	86	1.520142778582	74.531724609313
6	91	1.620142778582	74.213524874252
6	96	1.720142778582	73.895325139191
6	102	1.820142778582	73.577125404131
6	107	1.920142778582	73.25892566907
6	112	2.020142778582	72.940725934009
6	117	2.120142778582	72.622526198949
6	122	2.220142778582	72.304326463888
6	127	2.320142778582	71.986126728827
6	130	2.350079408367	71.890868452165
6	135	2.450079408367	72.783302548073
6	140	2.550079408367	73.675736643981
6	145	2.650079408367	74.568170739889
6	150	2.750079408367	75.460604835797
6	155	2.850079408367	76.353038931705
6	160	2.950079408367	77.245473027613
6	165	3.050079408367	78.137907123521
6	170	3.150079408367	79.030341219429
6	181	3.179532709531	79.293192521387
6	183	3.1795337115	79.2932014633
6	196	3.1795837115	79.293647680348
6	202	3.179692812382	79.294621333818
6	204	3.179693843633	79.294630537053
6	216	3.180141843633	79.298628641803
6	221	3.180150915235	79.298709599872
6	223	3.180151917205	79.298718541794
6	232	3.180455917205	79.301431541446
6	238	3.180604915235	79.302761250668
6	240	3.180605917206	79.302770192599
6	253	3.181277917206	79.308767349723
6	258	3.181287018097	79.308848569178
6	260	3.181288049309	79.308857772065
6	269	3.181592049309	79.311570771717
6	275	3.181681018097	79.312364759515
6	277	3.181682049299	79.312373962314
6	288	3.182354049299	79.318371119438
6	293	3.182363120969	79.318452078114
6	295	3.182364122943	79.318461020072
6	304	3.182668122943	79.321174019723
6	324	3.195254009217	79.433494760105
6	336	3.195304367437	79.43394417403
6	346	3.250079408367	79.922775315337
6	352	3.350079408367	80.815209411245
6	365	3.411053481512	81.359362829655
6	377	3.411103739076	81.359811345292
6	386	3.450079408367	81.707643507153
6	391	3.550079408367	82.600077603061
6	396	3.650079408367	83.492511698969
6	401	3.750079408367	84.384945794877
6	406	3.850079408367	85.277379890785
6	417	3.860757459886	85.372674463319
6	423	3.860807459886	85.373120680367
6	440	3.950079408367	86.169813986693
6	445	4.050079408367	87.062248082601
6	449	4.100962727668	87.516348173173
6	461	4.179532709531	88.962188623645
6	463	4.179533739108	88.962207569864
6	476	4.180205739108	88.97457367661
6	481	4.180214780192	88.974740050136
6	483	4.180215784374	88.974758529038
6	492	4.180519784374	88.980352720184
6	498	4.180568780192	88.981254338511
6	500	4.180569784353	88.981272817026
6	511	4.181241784353	88.993638923772
6	516	4.181250850834	88.993805764652
6	518	4.181251880412	88.99382471089
6	527	4.181555880412	88.999418902037
6	545	4.195254009217	89.251491108908
6	557	4.19530444054	89.252419143318
6	564	4.200962727668	89.356542629363
6	570	4.300962727668	91.196737085553
6	575	4.400962727668	93.036931541743
7	0	0	94.4355905056
7	13	0.1	96.657121675906
7	18	0.2	98.878652846213
7	23	0.3	101.10018401652
7	28	0.4	103.32171518683
7	33	0.5	105.54324635713
7	38	0.6	107.76477752744
7	43	0.7	109.98630869774
7	48	0.8	112.20783986805
7	53	0.9	114.42937103836
7	58	1	116.65090220866
7	63	1.1	118.87243337897
7	68	1.2	121.09396454928
7	74	1.3	123.31549571958
7	79	1.4	125.53702688989
7	81	1.420142778582	125.98450499465
7	86	1.520142778582	128.28213274632
7	91	1.620142778582	130.57976049799
7	96	1.720142778582	132.87738824965
7	102	1.820142778582	135.17501600132
7	107	1.920142778582	137.47264375299
7	112	2.020142778582	139.77027150465
7	117	2.120142778582	142.06789925632
7	122	2.220142778582	144.36552700799
7	127	2.320142778582	146.66315475965
7	130	2.350079408367	147.35098707351
7	135	2.450079408367	148.4137420426
7	140	2.550079408367	149.4764970117
7	145	2.650079408367	150.5392519808
7	150	2.750079408367	151.60200694989
7	155	2.850079408367	152.66476191899
7	160	2.950079408367	153.72751688808
7	165	3.050079408367	154.79027185718
7	170	3.150079408367	155.85302682627
7	181	3.179532709531	156.16604324796
7	183	3.1795337115	156.16605389643
7	196	3.1795837115	156.16658527392
7	202	3.179692812382	156.16774474896
7	204	3.179693843633	156.16775570863
7	216	3.180141843633	156.1725168509
7	221	3.180150915235	156.1726132598
7	223	3.180151917205	156.17262390828
7	232	3.180455917205	156.17585468339
7	238	3.180604915235	156.17743816736
7	240	3.180605917206	156.17744881585
7	253	3.181277917206	156.18459052925
7	258	3.181287018097	156.18468724942
7	260	3.181288049309	156.18469820867
7	269	3.181592049309	156.18792898378
7	275	3.181681018097	156.18887450399
7	277	3.181682049299	156.18888546315
7	288	3.182354049299	156.19602717654
7	293	3.182363120969	156.19612358616
7	295	3.182364122943	156.19613423469
7	304	3.182668122943	156.1993650098
7	324	3.195254009217	156.33312214158
7	336	3.195304367437	156.33365732606
7	346	3.250079408367	156.91578179537
7	352	3.350079408367	157.97853676447
7	365	3.411053481512	158.62654175668
7	377	3.411103739076	158.62707587143
7	386	3.450079408367	159.04129173356
7	391	3.550079408367	160.10404670266
7	396	3.650079408367	161.16680167175
7	401	3.750079408367	162.22955664085
7	406	3.850079408367	163.29231160995
7	417	3.860757459886	163.40579313307
7	423	3.860807459886	163.40632451055
7	440	3.950079408367	164.35506657904
7	445	4.050079408367	165.41782154814
7	449	4.100962727668	165.95858655245
7	461	4.179532709531	167.21027007987
7	463	4.179533739108	167.21028648187
7	476	4.180205739108	167.22099198683
7	481	4.180214780192	167.22113601863
7	483	4.180215784374	167.22115201606
7	492	4.180519784374	167.22599498259
7	498	4.180568780192	167.2267755257
7	500	4.180569784353	167.2267915228
7	511	4.181241784353	167.23749702776
7	516	4.181250850834	167.23764146415
7	518	4.181251880412	167.23765786617
7	527	4.181555880412	167.2425008327
7	545	4.195254009217	167.46072313306
7	557	4.19530444054	167.46152654493
7	564	4.200962727668	167.55166764747
7	570	4.300962727668	169.14474874249
7	575	4.400962727668	170.73782983751
8	0	0	0
8	13	0.1	0
8	18	0.2	0
8	23	0.3	0
8	28	0.4	0
8	33	0.5	0
8	38	0.6	0
8	43	0.7	0
8	48	0.8	0
8	53	0.9	0
8	58	1	0
8	63	1.1	0
8	68	1.2	0
8	74	1.3	0
8	79	1.4	0
8	81	1.420142778582	0
8	86	1.520142778582	0
8	91	1.620142778582	0
8	96	1.720142778582	0
8	102	1.820142778582	0
8	107	1.920142778582	0
8	112	2.020142778582	0
8	117	2.120142778582	0
8	122	2.220142778582	0
8	127	2.320142778582	0
8	130	2.350079408367	0
8	135	2.450079408367	0
8	140	2.550079408367	0
8	145	2.650079408367	0
8	150	2.750079408367	0
8	155	2.850079408367	0
8	160	2.950079408367	0
8	165	3.050079408367	0
8	170	3.150079408367	0
8	181	3.179532709531	0
8	183	3.1795337115	0
8	196	3.1795837115	0
8	202	3.179692812382	0
8	204	3.179693843633	0
8	216	3.180141843633	0
8	221	3.180150915235	0
8	223	3.180151917205	0
8	232	3.180455917205	0
8	238	3.180604915235	0
8	240	3.180605917206	0
8	253	3.181277917206	0
8	258	3.181287018097	0
8	260	3.181288049309	0
8	269	3.181592049309	0
8	275	3.181681018097	0
8	277	3.181682049299	0
8	288	3.182354049299	0
8	293	3.182363120969	0
8	295	3.182364122943	0
8	304	3.182668122943	0
8	324	3.195254009217	0
8	336	3.195304367437	0
8	346	3.250079408367	0
8	352	3.350079408367	0
8	365	3.411053481512	0
8	377	3.411103739076	0
8	386	3.450079408367	0
8	391	3.550079408367	0
8	396	3.650079408367	0
8	401	3.750079408367	0
8	406	3.850079408367	0
8	417	3.860757459886	0
8	423	3.860807459886	0
8	440	3.950079408367	0
8	445	4.050079408367	0
8	449	4.100962727668	0
8	461	4.179532709531	0
8	463	4.179533739108	0
8	476	4.180205739108	0
8	481	4.180214780192	0
8	483	4.180215784374	0
8	492	4.180519784374	0
8	498	4.180568780192	0
8	500	4.180569784353	0
8	511	4.181241784353	0
8	516	4.181250850834	0
8	518	4.181251880412	0
8	527	4.181555880412	0
8	545	4.195254009217	0
8	557	4.19530444054	0
8	564	4.200962727668	0
8	570	4.300962727668	0
8	575	4.400962727668	0
9	0	0	111.75612676889
9	14	0.1	110.60682570355
9	19	0.2	109.45752463821
9	24	0.3	108.30822357287
9	29	0.4	107.15892250754
9	34	0.5	106.0096214422
9	39	0.6	104.86032037686
9	44	0.7	103.71101931152
9	49	0.8	102.56171824618
9	54	0.9	101.41241718085
9	59	1	100.26311611551
9	64	1.1	99.113815050171
9	69	1.2	97.964513984834
9	75	1.3	96.815212919496
9	80	1.4	95.665911854158
9	85	1.5	94.51661078882
9	90	1.6	93.367309723482
9	95	1.7	92.218008658145
9	100	1.8	91.068707592807
9	101	1.809433767542	90.960285201945
9	106	1.909433767542	89.613759725098
9	111	2.009433767542	88.267234248251
9	116	2.109433767542	86.920708771404
9	121	2.209433767542	85.574183294557
9	126	2.309433767542	84.227657817709
9	132	2.409433767542	82.881132340862
9	137	2.509433767542	81.534606864015
9	142	2.609433767542	80.188081387168
9	147	2.709433767542	78.841555910321
9	153	2.809433767542	77.495030433474
9	158	2.909433767542	76.148504956627
9	163	3.009433767542	74.801979479779
9	168	3.109433767542	73.455454002932
9	181	3.179532709531	72.51155389005
9	184	3.179533890533	72.511537987557
9	197	3.179583890533	72.510864724819
9	202	3.179692812382	72.509398064372
9	205	3.179694035065	72.509381600634
9	217	3.180142035065	72.503349166498
9	221	3.180150915235	72.503229592746
9	224	3.180152096308	72.503213689298
9	233	3.180456096308	72.499120251848
9	238	3.180604915235	72.497116367082
9	241	3.180606096361	72.497100462919
9	254	3.181278096361	72.488051811715
9	258	3.181287018097	72.487931678266
9	261	3.181288240928	72.487915212535
9	270	3.181592240928	72.483821775086
9	275	3.181681018097	72.482626367888
9	278	3.181682240964	72.482609901672
9	289	3.182354240964	72.473561250468
9	293	3.182363120969	72.473441678938
9	296	3.182364302298	72.473425772042
9	305	3.182668302298	72.469332334592
9	324	3.195254009217	72.299862584487
9	331	3.195304132509	72.29918766159
9	344	3.209433767542	72.108928526085
9	349	3.309433767542	70.762403049238
9	355	3.409433767542	69.415877572391
9	365	3.411053481512	69.394067711133
9	371	3.411103481512	69.393394448394
9	389	3.509433767542	68.069352095544
9	394	3.609433767542	66.722826618697
9	399	3.709433767542	65.376301141849
9	404	3.809433767542	64.029775665002
9	417	3.860757459886	63.338689071932
9	424	3.860807766325	63.338011682914
9	438	3.909433767542	62.683250188155
9	443	4.009433767542	61.336724711308
9	448	4.082454199383	60.353485993265
9	461	4.179532709531	59.971256286744
9	464	4.179534037775	59.971251057015
9	477	4.180206037775	59.968605174189
9	481	4.180214780192	59.968570752446
9	484	4.180216092221	59.968565586561
9	493	4.180520092221	59.967368639568
9	498	4.180568780192	59.967176939172
9	501	4.180570092241	59.967171773208
9	512	4.181242092241	59.964525890381
9	516	4.181250850834	59.964491404949
9	519	4.181252179284	59.964486174408
9	528	4.181556179284	59.963289227416
9	530	4.182454199383	59.95975342986
9	545	4.195254009217	59.90935641049
9	552	4.195304124574	59.90915909001
9	569	4.282454199383	59.566020866455
9	574	4.382454199383	59.17228830305
10	0	0	155.16429608688
10	14	0.1	152.73889434082
10	19	0.2	150.31349259477
10	24	0.3	147.88809084871
10	29	0.4	145.46268910266
10	34	0.5	143.0372873566
10	39	0.6	140.61188561055
10	44	0.7	138.18648386449
10	49	0.8	135.76108211844
10	54	0.9	133.33568037238
10	59	1	130.91027862633
10	64	1.1	128.48487688028
10	69	1.2	126.05947513422
10	75	1.3	123.63407338817
10	80	1.4	121.20867164211
10	85	1.5	118.78326989606
10	90	1.6	116.35786815
10	95	1.7	113.93246640395
10	100	1.8	111.50706465789
10	101	1.809433767542	111.27825789521
10	106	1.909433767542	109.47166510554
10	111	2.009433767542	107.66507231587
10	116	2.109433767542	105.8584795262
10	121	2.209433767542	104.05188673653
10	126	2.309433767542	102.24529394686
10	132	2.409433767542	100.43870115719
10	137	2.509433767542	98.632108367519
10	142	2.609433767542	96.825515577849
10	147	2.709433767542	95.018922788178
10	153	2.809433767542	93.212329998508
10	158	2.909433767542	91.405737208838
10	163	3.009433767542	89.599144419168
10	168	3.109433767542	87.792551629498
10	181	3.179532709531	86.52614919789
10	184	3.179533890533	86.526127861993
10	197	3.179583890533	86.525224565598
10	202	3.179692812382	86.523256791328
10	205	3.179694035065	86.523234702425
10	217	3.180142035065	86.515141166727
10	221	3.180150915235	86.514980738216
10	224	3.180152096308	86.514959401036
10	233	3.180456096308	86.509467358956
10	238	3.180604915235	86.506778806951
10	241	3.180606096361	86.506757468814
10	254	3.181278096361	86.494617165267
10	258	3.181287018097	86.494455985828
10	261	3.181288240928	86.494433894251
10	270	3.181592240928	86.488941852171
10	275	3.181681018097	86.487338010237
10	278	3.181682240964	86.487315918009
10	289	3.182354240964	86.475175614463
10	293	3.182363120969	86.475015188933
10	296	3.182364302298	86.474993847128
10	305	3.182668302298	86.469501805048
10	324	3.195254009217	86.24212933132
10	331	3.195304132509	86.241223807541
10	344	3.209433767542	85.985958839828
10	349	3.309433767542	84.179366050158
10	355	3.409433767542	82.372773260488
10	365	3.411053481512	82.343511624692
10	371	3.411103481512	82.342608328298
10	389	3.509433767542	80.566180470818
10	394	3.609433767542	78.759587681148
10	399	3.709433767542	76.952994891478
10	404	3.809433767542	75.146402101807
10	417	3.860757459886	74.219191976528
10	424	3.860807766325	74.218283144029
10	438	3.909433767542	73.339809312137
10	443	4.009433767542	71.533216522467
10	448	4.082454199383	70.214034665842
10	461	4.179532709531	69.11639557345
10	464	4.179534037775	69.116380555373
10	477	4.180206037775	69.108782442578
10	481	4.180214780192	69.108683594557
10	484	4.180216092221	69.108668759818
10	493	4.180520092221	69.105231518316
10	498	4.180568780192	69.104681017281
10	501	4.180570092241	69.104666182316
10	512	4.181242092241	69.097068069521
10	516	4.181250850834	69.096969038602
10	519	4.181252179284	69.096954018196
10	528	4.181556179284	69.093516776693
10	530	4.182454199383	69.083363118948
10	545	4.195254009217	68.938639311099
10	552	4.195304124574	68.938072671017
10	569	4.282454199383	67.952691572055
10	574	4.382454199383	66.822020025162
11	0	0	0
11	14	0.1	0
11	19	0.2	0
11	24	0.3	0
11	29	0.4	0
11	34	0.5	0
11	39	0.6	0
11	44	0.7	0
11	49	0.8	0
11	54	0.9	0
11	59	1	0
11	64	1.1	0
11	69	1.2	0
11	75	1.3	0
11	80	1.4	0
11	85	1.5	0
11	90	1.6	0
11	95	1.7	0
11	100	1.8	0
11	101	1.809433767542	0
11	106	1.909433767542	0
11	111	2.009433767542	0
11	116	2.109433767542	0
11	121	2.209433767542	0
11	126	2.309433767542	0
11	132	2.409433767542	0
11	137	2.509433767542	0
11	142	2.609433767542	0
11	147	2.709433767542	0
11	153	2.809433767542	0
11	158	2.909433767542	0
11	163	3.009433767542	0
11	168	3.109433767542	0
11	181	3.179532709531	0
11	184	3.179533890533	0
11	197	3.179583890533	0
11	202	3.179692812382	0
11	205	3.179694035065	0
11	217	3.180142035065	0
11	221	3.180150915235	0
11	224	3.180152096308	0
11	233	3.180456096308	0
11	238	3.180604915235	0
11	241	3.180606096361	0
11	254	3.181278096361	0
11	258	3.181287018097	0
11	261	3.181288240928	0
11	270	3.181592240928	0
11	275	3.181681018097	0
11	278	3.181682240964	0
11	289	3.182354240964	0
11	293	3.182363120969	0
11	296	3.182364302298	0
11	305	3.182668302298	0
11	324	3.195254009217	0
11	331	3.195304132509	0
11	344	3.209433767542	0
11	349	3.309433767542	0
11	355	3.409433767542	0
11	365	3.411053481512	0
11	371	3.411103481512	0
11	389	3.509433767542	0
11	394	3.609433767542	0
11	399	3.709433767542	0
11	404	3.809433767542	0
11	417	3.860757459886	0
11	424	3.860807766325	0
11	438	3.909433767542	0
11	443	4.009433767542	0
11	448	4.082454199383	0
11	461	4.179532709531	0
11	464	4.179534037775	0
11	477	4.180206037775	0
11	481	4.180214780192	0
11	484	4.180216092221	0
11	493	4.180520092221	0
11	498	4.180568780192	0
11	501	4.180570092241	0
11	512	4.181242092241	0
11	516	4.181250850834	0
11	519	4.181252179284	0
11	528	4.181556179284	0
11	530	4.182454199383	0
11	545	4.195254009217	0
11	552	4.195304124574	0
11	569	4.282454199383	0
11	574	4.382454199383	0
12	0	0	238.06048119441
12	15	0.1	240.62720915042
12	20	0.2	243.19393710644
12	25	0.3	245.76066506246
12	30	0.4	248.32739301847
12	35	0.5	250.89412097449
12	40	0.6	253.46084893051
12	45	0.7	256.02757688653
12	50	0.8	258.59430484254
12	55	0.9	261.16103279856
12	60	1	263.72776075458
12	65	1.1	266.29448871059
12	70	1.2	268.86121666661
12	71	1.237295456952	269.81848958652
12	76	1.337295456952	271.78273436274
12	82	1.437295456952	273.74697913895
12	87	1.537295456952	275.71122391517
12	92	1.637295456952	277.67546869138
12	97	1.737295456952	279.6397134676
12	103	1.837295456952	281.60395824381
12	108	1.937295456952	283.56820302003
12	113	2.037295456952	285.53244779624
12	118	2.137295456952	287.49669257246
12	123	2.237295456952	289.46093734867
12	128	2.337295456952	291.42518212489
12	133	2.437295456952	293.38942690111
12	138	2.537295456952	295.35367167732
12	143	2.637295456952	297.31791645354
12	148	2.737295456952	299.28216122975
12	154	2.837295456952	301.24640600597
12	159	2.937295456952	303.21065078218
12	164	3.037295456952	305.1748955584
12	169	3.137295456952	307.13914033461
12	181	3.179532709531	307.96878336201
12	187	3.179582709531	307.9697654844
12	202	3.179692812382	307.9719281739
12	209	3.180140915235	307.98073001078
12	221	3.180150915235	307.98092643526
12	229	3.180454915235	307.98689773938
12	238	3.180604915235	307.98984410654
12	244	3.181276915235	308.00304383144
12	258	3.181287018097	308.00324227638
12	267	3.181591120965	308.00921560108
12	275	3.181681018097	308.0109814008
12	282	3.182353120969	308.02418314635
12	293	3.182363120969	308.02437957083
12	301	3.182667120969	308.03035087495
12	324	3.195254009217	308.27758816985
12	327	3.195255296771	308.27761346056
12	341	3.195305296771	308.27859558295
12	345	3.237295456952	309.10338511083
12	350	3.337295456952	311.06762988704
12	351	3.338392009967	311.08916887236
12	365	3.411053481512	312.2301222532
12	368	3.411054692356	312.23014126626
12	382	3.411104692356	312.23092638205
12	385	3.438392009967	312.65940046358
12	390	3.538392009967	314.22963205479
12	395	3.638392009967	315.79986364601
12	400	3.738392009967	317.37009523723
12	405	3.838392009967	318.94032682845
12	417	3.860757459886	319.29151618859
12	421	3.860758480853	319.29153222014
12	435	3.860808480853	319.29231733593
12	439	3.938392009967	320.51055841966
12	444	4.038392009967	322.08079001088
12	450	4.138392009967	323.6510216021
12	461	4.179532709531	324.2970258635
12	467	4.180204709531	324.30757781979
12	481	4.180214780192	324.30773595249
12	490	4.18051885084	324.31251056587
12	498	4.180568780192	324.31329457233
12	505	4.181240850834	324.32384763786
12	516	4.181250850834	324.32400466102
12	524	4.181554850834	324.32877816506
12	545	4.195254009217	324.54388667772
12	549	4.195255381619	324.54390822761
12	563	4.195305381619	324.5446933434
12	566	4.238392009967	325.22125319331
12	571	4.338392009967	326.79148478453
13	0	0	374.21562904492
13	15	0.1	372.50964407096
13	20	0.2	370.803659097
13	25	0.3	369.09767412304
13	30	0.4	367.39168914908
13	35	0.5	365.68570417513
13	40	0.6	363.97971920117
13	45	0.7	362.27373422721
13	50	0.8	360.56774925325
13	55	0.9	358.86176427929
13	60	1	357.15577930533
13	65	1.1	355.44979433137
13	70	1.2	353.74380935741
13	71	1.237295456952	353.10755446584
13	76	1.337295456952	352.99599900897
13	82	1.437295456952	352.88444355209
13	87	1.537295456952	352.77288809522
13	92	1.637295456952	352.66133263834
13	97	1.737295456952	352.54977718146
13	103	1.837295456952	352.43822172459
13	108	1.937295456952	352.32666626771
13	113	2.037295456952	352.21511081084
13	118	2.137295456952	352.10355535396
13	123	2.237295456952	351.99199989709
13	128	2.337295456952	351.88044444021
13	133	2.437295456952	351.76888898334
13	138	2.537295456952	351.65733352646
13	143	2.637295456952	351.54577806958
13	148	2.737295456952	351.43422261271
13	154	2.837295456952	351.32266715583
13	159	2.937295456952	351.21111169896
13	164	3.037295456952	351.09955624208
13	169	3.137295456952	350.98800078521
13	181	3.179532709531	350.94088282512
13	187	3.179582709531	350.94082704739
13	202	3.179692812382	350.94070422165
13	209	3.180140915235	350.94020433847
13	221	3.180150915235	350.94019318292
13	229	3.180454915235	350.93985405433
13	238	3.180604915235	350.93968672115
13	244	3.181276915235	350.93893706848
13	258	3.181287018097	350.93892579818
13	267	3.181591120965	350.93858655484
13	275	3.181681018097	350.93848626968
13	282	3.182353120969	350.93773650225
13	293	3.182363120969	350.93772534671
13	301	3.182667120969	350.93738621812
13	324	3.195254009217	350.92334485743
13	327	3.195255296771	350.92334342109
13	341	3.195305296771	350.92328764336
13	345	3.237295456952	350.87644532833
13	350	3.337295456952	350.76488987145
13	351	3.338392009967	350.76366660673
13	365	3.411053481512	352.16023156494
13	368	3.411054692356	352.16025483756
13	382	3.411104692356	352.16121584545
13	385	3.438392009967	352.68568239931
13	390	3.538392009967	354.60769819188
13	395	3.638392009967	356.52971398446
13	400	3.738392009967	358.45172977704
13	405	3.838392009967	360.37374556962
13	417	3.860757459886	360.80361304914
13	421	3.860758480853	360.80363267229
13	435	3.860808480853	360.80459368018
13	439	3.938392009967	362.2957613622
13	444	4.038392009967	364.21777715477
13	450	4.138392009967	366.13979294735
13	461	4.179532709531	366.93052369015
13	467	4.180204709531	366.94343963627
13	481	4.180214780192	366.94363319597
13	490	4.18051885084	366.94947748184
13	498	4.180568780192	366.95043713187
13	505	4.181240850834	366.96335443575
13	516	4.181250850834	366.96354663733
13	524	4.181554850834	366.96938956534
13	545	4.195254009217	367.23268955291
13	549	4.195255381619	367.23271593069
13	563	4.195305381619	367.23367693859
13	566	4.238392009967	368.06180873993
13	571	4.338392009967	369.98382453251
14	0	0	0
14	15	0.1	0
14	20	0.2	0
14	25	0.3	0
14	30	0.4	0
14	35	0.5	0
14	40	0.6	0
14	45	0.7	0
14	50	0.8	0
14	55	0.9	0
14	60	1	0
14	65	1.1	0
14	70	1.2	0
14	71	1.237295456952	0
14	76	1.337295456952	0
14	82	1.437295456952	0
14	87	1.537295456952	0
14	92	1.637295456952	0
14	97	1.737295456952	0
14	103	1.837295456952	0
14	108	1.937295456952	0
14	113	2.037295456952	0
14	118	2.137295456952	0
14	123	2.237295456952	0
14	128	2.337295456952	0
14	133	2.437295456952	0
14	138	2.537295456952	0
14	143	2.637295456952	0
14	148	2.737295456952	0
14	154	2.837295456952	0
14	159	2.937295456952	0
14	164	3.037295456952	0
14	169	3.137295456952	0
14	181	3.179532709531	0
14	187	3.179582709531	0
14	202	3.179692812382	0
14	209	3.180140915235	0
14	221	3.180150915235	0
14	229	3.180454915235	0
14	238	3.180604915235	0
14	244	3.181276915235	0
14	258	3.181287018097	0
14	267	3.181591120965	0
14	275	3.181681018097	0
14	282	3.182353120969	0
14	293	3.182363120969	0
14	301	3.182667120969	0
14	324	3.195254009217	0
14	327	3.195255296771	0
14	341	3.195305296771	0
14	345	3.237295456952	0
14	350	3.337295456952	0
14	351	3.338392009967	0
14	365	3.411053481512	0
14	368	3.411054692356	0
14	382	3.411104692356	0
14	385	3.438392009967	0
14	390	3.538392009967	0
14	395	3.638392009967	0
14	400	3.738392009967	0
14	405	3.838392009967	0
14	417	3.860757459886	0
14	421	3.860758480853	0
14	435	3.860808480853	0
14	439	3.938392009967	0
14	444	4.038392009967	0
14	450	4.138392009967	0
14	461	4.179532709531	0
14	467	4.180204709531	0
14	481	4.180214780192	0
14	490	4.18051885084	0
14	498	4.180568780192	0
14	505	4.181240850834	0
14	516	4.181250850834	0
14	524	4.181554850834	0
14	545	4.195254009217	0
14	549	4.195255381619	0
14	563	4.195305381619	0
14	566	4.238392009967	0
14	571	4.338392009967	0
16	192	3.179582812382	1
20	189	3.179582812382	64
20	246	3.181277018097	120
20	469	4.180204780192	120
21	200	3.179692812382	64
21	256	3.181287018097	14
21	273	3.181681018097	120
21	479	4.180214780192	14
21	496	4.180568780192	120
22	195	3.179582812382	64
22	252	3.181277018097	120
22	475	4.180204780192	120
23	189	3.179582812382	64
23	231	3.180455018092	14
23	246	3.181277018097	120
23	303	3.182667223848	14
23	469	4.180204780192	120
23	526	4.181554921463	14
24	0	0	0
24	0	0	2
24	201	3.179692812382	3
24	208	3.180140812382	2
24	257	3.181287018097	3
24	266	3.181591018097	2
24	274	3.181681018097	3
24	281	3.182353018097	2
24	480	4.180214780192	3
24	489	4.180518780192	2
24	497	4.180568780192	3
24	504	4.181240780192	2
25	0	0	1
25	182	3.179532812382	3
25	188	3.179582812382	1
25	201	3.179692812382	0
25	208	3.180140812382	1
25	222	3.180151018092	3
25	230	3.180455018092	1
25	239	3.180605018097	3
25	245	3.181277018097	1
25	257	3.181287018097	0
25	266	3.181591018097	1
25	274	3.181681018097	0
25	281	3.182353018097	1
25	294	3.182363223848	3
25	302	3.182667223848	1
25	462	4.179532780192	3
25	468	4.180204780192	1
25	480	4.180214780192	0
25	489	4.180518780192	1
25	497	4.180568780192	0
25	504	4.181240780192	1
25	517	4.181250921463	3
25	525	4.181554921463	1
26	201	3.179692812382	1
26	202	3.179692812382	2
26	207	3.180140812382	1
26	208	3.180140812382	0
26	257	3.181287018097	1
26	258	3.181287018097	2
26	265	3.181591018097	1
26	266	3.181591018097	0
26	274	3.181681018097	1
26	275	3.181681018097	2
26	280	3.182353018097	1
26	281	3.182353018097	0
26	480	4.180214780192	1
26	481	4.180214780192	2
26	488	4.180518780192	1
26	489	4.180518780192	0
26	497	4.180568780192	1
26	498	4.180568780192	2
26	503	4.181240780192	1
26	504	4.181240780192	0
27	0	0	0
28	0	0	0
28	0	0	0
28	0	0	0
28	0	0	0
28	182	3.179532812382	0
28	182	3.179532812382	0
28	188	3.179582812382	0
28	188	3.179582812382	0
28	195	3.179582812382	0
28	195	3.179582812382	2
28	199	3.179692812382	2
28	199	3.179692812382	3
28	201	3.179692812382	3
28	201	3.179692812382	3
28	230	3.180455018092	3
28	230	3.180455018092	3
28	231	3.180455018092	3
28	231	3.180455018092	0
28	239	3.180605018097	0
28	239	3.180605018097	0
28	245	3.181277018097	0
28	245	3.181277018097	0
28	252	3.181277018097	0
28	252	3.181277018097	2
28	257	3.181287018097	2
28	257	3.181287018097	1
28	266	3.181591018097	1
28	266	3.181591018097	2
28	272	3.181681018097	2
28	272	3.181681018097	3
28	274	3.181681018097	3
28	274	3.181681018097	3
28	302	3.182667223848	3
28	302	3.182667223848	3
28	303	3.182667223848	3
28	303	3.182667223848	0
28	462	4.179532780192	0
28	462	4.179532780192	0
28	468	4.180204780192	0
28	468	4.180204780192	0
28	475	4.180204780192	0
28	475	4.180204780192	2
28	480	4.180214780192	2
28	480	4.180214780192	1
28	489	4.180518780192	1
28	489	4.180518780192	2
28	495	4.180568780192	2
28	495	4.180568780192	3
28	497	4.180568780192	3
28	497	4.180568780192	3
28	525	4.181554921463	3
28	525	4.181554921463	3
28	526	4.181554921463	3
28	526	4.181554921463	0
32	315	3.195254009217	0
32	535	4.195254009217	1
39	317	3.195254009217	1
39	536	4.195254009217	1
44	373	3.411103595495	64
44	430	3.860807857019	64
45	322	3.195254009217	64
45	543	4.195254009217	64
46	320	3.195254009217	64
46	541	4.195254009217	64
47	373	3.411103595495	64
47	430	3.860807857019	64
48	0	0	0
48	0	0	2
48	323	3.195254009217	3
48	330	3.195304009217	2
48	544	4.195254009217	3
48	551	4.195304009217	2
49	0	0	1
49	323	3.195254009217	0
49	330	3.195304009217	1
49	366	3.411053595495	3
49	372	3.411103595495	1
49	419	3.860757857019	3
49	429	3.860807857019	1
49	544	4.195254009217	0
49	551	4.195304009217	1
50	323	3.195254009217	1
50	324	3.195254009217	2
50	329	3.195304009217	1
50	330	3.195304009217	0
50	544	4.195254009217	1
50	545	4.195254009217	2
50	550	4.195304009217	1
50	551	4.195304009217	0
51	0	0	0
52	0	0	0
52	0	0	0
52	0	0	0
52	0	0	0
52	320	3.195254009217	0
52	320	3.195254009217	2
52	321	3.195254009217	2
52	321	3.195254009217	3
52	323	3.195254009217	3
52	323	3.195254009217	3
52	329	3.195304009217	3
52	329	3.195304009217	0
52	330	3.195304009217	0
52	330	3.195304009217	0
52	366	3.411053595495	0
52	366	3.411053595495	0
52	372	3.411103595495	0
52	372	3.411103595495	0
52	419	3.860757857019	0
52	419	3.860757857019	0
52	429	3.860807857019	0
52	429	3.860807857019	0
52	541	4.195254009217	0
52	541	4.195254009217	2
52	542	4.195254009217	2
52	542	4.195254009217	3
52	544	4.195254009217	3
52	544	4.195254009217	3
52	550	4.195304009217	3
52	550	4.195304009217	0
52	551	4.195304009217	0
52	551	4.195304009217	0
56	408	3.860757459886	0
63	410	3.860757459886	1
68	337	3.195304367437	64
68	378	3.411103739076	64
68	558	4.19530444054	64
69	415	3.860757459886	64
70	413	3.860757459886	64
71	337	3.195304367437	64
71	378	3.411103739076	64
71	558	4.19530444054	64
72	0	0	0
72	0	0	2
72	416	3.860757459886	3
72	423	3.860807459886	2
73	0	0	1
73	326	3.195254367437	3
73	336	3.195304367437	1
73	367	3.411053739076	3
73	377	3.411103739076	1
73	416	3.860757459886	0
73	423	3.860807459886	1
73	547	4.19525444054	3
73	557	4.19530444054	1
74	416	3.860757459886	1
74	417	3.860757459886	2
74	422	3.860807459886	1
74	423	3.860807459886	0
75	0	0	0
76	0	0	0
76	0	0	0
76	0	0	0
76	0	0	0
76	326	3.195254367437	0
76	326	3.195254367437	0
76	336	3.195304367437	0
76	336	3.195304367437	0
76	367	3.411053739076	0
76	367	3.411053739076	0
76	377	3.411103739076	0
76	377	3.411103739076	0
76	413	3.860757459886	0
76	413	3.860757459886	2
76	414	3.860757459886	2
76	414	3.860757459886	3
76	416	3.860757459886	3
76	416	3.860757459886	3
76	422	3.860807459886	3
76	422	3.860807459886	0
76	423	3.860807459886	0
76	423	3.860807459886	0
76	547	4.19525444054	0
76	547	4.19525444054	0
76	557	4.19530444054	0
76	557	4.19530444054	0
80	356	3.411053481512	0
80	576	4.411053481512	1
87	358	3.411053481512	1
92	332	3.195304132509	64
92	425	3.860807766325	64
92	553	4.195304124574	64
93	363	3.411053481512	64
94	361	3.411053481512	64
95	332	3.195304132509	64
95	425	3.860807766325	64
95	553	4.195304124574	64
96	0	0	0
96	0	0	2
96	364	3.411053481512	3
96	371	3.411103481512	2
97	0	0	1
97	325	3.195254132509	3
97	331	3.195304132509	1
97	364	3.411053481512	0
97	371	3.411103481512	1
97	418	3.860757766325	3
97	424	3.860807766325	1
97	546	4.195254124574	3
97	552	4.195304124574	1
98	364	3.411053481512	1
98	365	3.411053481512	2
98	370	3.411103481512	1
98	371	3.411103481512	0
99	0	0	0
100	0	0	0
100	0	0	0
100	0	0	0
100	0	0	0
100	325	3.195254132509	0
100	325	3.195254132509	0
100	331	3.195304132509	0
100	331	3.195304132509	0
100	361	3.411053481512	0
100	361	3.411053481512	2
100	362	3.411053481512	2
100	362	3.411053481512	3
100	364	3.411053481512	3
100	364	3.411053481512	3
100	370	3.411103481512	3
100	370	3.411103481512	0
100	371	3.411103481512	0
100	371	3.411103481512	0
100	418	3.860757766325	0
100	418	3.860757766325	0
100	424	3.860807766325	0
100	424	3.860807766325	0
100	546	4.195254124574	0
100	546	4.195254124574	0
100	552	4.195304124574	0
100	552	4.195304124574	0
101	287	3.182353120969	0.002820411438
101	510	4.181240850834	0.001708141303
104	172	3.179532709531	0
104	453	4.179532709531	1
105	287	3.182353120969	0
105	510	4.181240850834	1
111	174	3.179532709531	1
116	210	3.180140915235	64
116	283	3.182353120969	120
116	506	4.181240850834	120
117	179	3.179532709531	64
117	219	3.180150915235	14
117	236	3.180604915235	120
117	291	3.182363120969	14
117	459	4.179532709531	120
117	514	4.181250850834	14
118	177	3.179532709531	64
118	215	3.180140915235	120
118	457	4.179532709531	120
119	210	3.180140915235	64
119	268	3.181591120965	14
119	283	3.182353120969	120
119	491	4.18051885084	14
119	506	4.181240850834	120
120	0	0	0
120	0	0	2
120	180	3.179532709531	3
120	187	3.179582709531	2
120	220	3.180150915235	3
120	229	3.180454915235	2
120	237	3.180604915235	3
120	244	3.181276915235	2
120	292	3.182363120969	3
120	301	3.182667120969	2
120	460	4.179532709531	3
120	467	4.180204709531	2
120	515	4.181250850834	3
120	524	4.181554850834	2
121	0	0	1
121	180	3.179532709531	0
121	187	3.179582709531	1
121	203	3.179692915235	3
121	209	3.180140915235	1
121	220	3.180150915235	0
121	229	3.180454915235	1
121	237	3.180604915235	0
121	244	3.181276915235	1
121	259	3.181287120965	3
121	267	3.181591120965	1
121	276	3.181681120969	3
121	282	3.182353120969	1
121	292	3.182363120969	0
121	301	3.182667120969	1
121	460	4.179532709531	0
121	467	4.180204709531	1
121	482	4.18021485084	3
121	490	4.18051885084	1
121	499	4.180568850834	3
121	505	4.181240850834	1
121	515	4.181250850834	0
121	524	4.181554850834	1
122	180	3.179532709531	1
122	181	3.179532709531	2
122	186	3.179582709531	1
122	187	3.179582709531	0
122	220	3.180150915235	1
122	221	3.180150915235	2
122	228	3.180454915235	1
122	229	3.180454915235	0
122	237	3.180604915235	1
122	238	3.180604915235	2
122	243	3.181276915235	1
122	244	3.181276915235	0
122	292	3.182363120969	1
122	293	3.182363120969	2
122	300	3.182667120969	1
122	301	3.182667120969	0
122	460	4.179532709531	1
122	461	4.179532709531	2
122	466	4.180204709531	1
122	467	4.180204709531	0
122	515	4.181250850834	1
122	516	4.181250850834	2
122	523	4.181554850834	1
122	524	4.181554850834	0
123	0	0	0
124	0	0	0
124	0	0	0
124	0	0	0
124	0	0	0
124	177	3.179532709531	0
124	177	3.179532709531	2
124	178	3.179532709531	2
124	178	3.179532709531	3
124	180	3.179532709531	3
124	180	3.179532709531	3
124	186	3.179582709531	3
124	186	3.179582709531	0
124	187	3.179582709531	0
124	187	3.179582709531	0
124	203	3.179692915235	0
124	203	3.179692915235	0
124	209	3.180140915235	0
124	209	3.180140915235	0
124	215	3.180140915235	0
124	215	3.180140915235	2
124	220	3.180150915235	2
124	220	3.180150915235	1
124	229	3.180454915235	1
124	229	3.180454915235	2
124	235	3.180604915235	2
124	235	3.180604915235	3
124	237	3.180604915235	3
124	237	3.180604915235	3
124	267	3.181591120965	3
124	267	3.181591120965	3
124	268	3.181591120965	3
124	268	3.181591120965	0
124	276	3.181681120969	0
124	276	3.181681120969	0
124	282	3.182353120969	0
124	282	3.182353120969	0
124	292	3.182363120969	0
124	292	3.182363120969	0
124	301	3.182667120969	0
124	301	3.182667120969	0
124	457	4.179532709531	0
124	457	4.179532709531	2
124	458	4.179532709531	2
124	458	4.179532709531	3
124	460	4.179532709531	3
124	460	4.179532709531	3
124	490	4.18051885084	3
124	490	4.18051885084	3
124	491	4.18051885084	3
124	491	4.18051885084	0
124	499	4.180568850834	0
124	499	4.180568850834	0
124	505	4.181240850834	0
124	505	4.181240850834	0
124	515	4.181250850834	0
124	515	4.181250850834	0
124	524	4.181554850834	0
124	524	4.181554850834	0
