file 62751 1467653997                                           
version 2
run Ping2-0-20160704-19:39:26-4126
attr configname Ping2
attr datetime 20160704-19:39:26
attr experiment Ping2
attr inifile omnetpp.ini
attr iterationvars ""
attr iterationvars2 $repetition=0
attr measurement ""
attr network Net80211test
attr processid 4126
attr repetition 0
attr replication #0
attr resultdir results
attr runnumber 0
attr seedset 0
param **.constraintAreaMaxX 600m
param **.constraintAreaMaxY 400m
param **.constraintAreaMaxZ 0m
param **.constraintAreaMinX 0m
param **.constraintAreaMinY 0m
param **.constraintAreaMinZ 0m
param **.host*.mobility.changeAngleBy "normal(0deg, 30deg)"
param **.host*.mobility.changeInterval "truncnormal(2s, 0.5s)"
param **.host*.mobility.initFromDisplayString false
param **.host*.mobility.speed "truncnormal(20mps, 8mps)"
param **.host*.mobility.updateInterval 100ms
param **.host*.mobilityType "\"MassMobility\""
param **.pingApp[*].printPing true
param **.pingApp[0].startTime uniform(1s,5s)
param **.pingApp[1].startTime 5s+uniform(1s,5s)
param **.wlan[*].bitrate 2Mbps
param **.wlan[*].mac.address "\"auto\""
param **.wlan[*].mac.cwMinBroadcast 31
param **.wlan[*].mac.cwMinData 7
param **.wlan[*].mac.maxQueueSize 14
param **.wlan[*].mac.retryLimit 7
param **.wlan[*].mac.rtsThresholdBytes 3000B
param **.wlan[*].mgmt.frameCapacity 10
param **.wlan[*].radio.receiver.sensitivity -85dBm
param **.wlan[*].radio.receiver.snirThreshold 4dB
param **.wlan[*].radio.transmitter.power 2mW
param *.host[*].numPingApps 2
param *.host[*].pingApp[*].destAddr "\"host[0]\""
param *.host[0].numPingApps 0

vector 28  Net80211test.host[0].wlan[0].mac.ctn[0]  state:vector  ETV
attr interpolationmode  none
attr source  stateChanged
attr title  "contention state, vector"
vector 52  Net80211test.host[1].wlan[0].mac.ctn[0]  state:vector  ETV
attr interpolationmode  none
attr source  stateChanged
attr title  "contention state, vector"
vector 76  Net80211test.host[2].wlan[0].mac.ctn[0]  state:vector  ETV
attr interpolationmode  none
attr source  stateChanged
attr title  "contention state, vector"
vector 100  Net80211test.host[3].wlan[0].mac.ctn[0]  state:vector  ETV
attr interpolationmode  none
attr source  stateChanged
attr title  "contention state, vector"
vector 124  Net80211test.host[4].wlan[0].mac.ctn[0]  state:vector  ETV
attr interpolationmode  none
attr source  stateChanged
attr title  "contention state, vector"
vector 0  Net80211test.host[0]  coordX:vector  ETV
attr interpolationmode  linear
attr source  xCoord(mobilityPos(mobilityStateChanged))
attr title  "coord X, vector"
vector 1  Net80211test.host[0]  coordY:vector  ETV
attr interpolationmode  linear
attr source  yCoord(mobilityPos(mobilityStateChanged))
attr title  "coord Y, vector"
vector 2  Net80211test.host[0]  coordZ:vector  ETV
attr interpolationmode  linear
attr source  zCoord(mobilityPos(mobilityStateChanged))
attr title  "coord Z, vector"
vector 3  Net80211test.host[1]  coordX:vector  ETV
attr interpolationmode  linear
attr source  xCoord(mobilityPos(mobilityStateChanged))
attr title  "coord X, vector"
vector 4  Net80211test.host[1]  coordY:vector  ETV
attr interpolationmode  linear
attr source  yCoord(mobilityPos(mobilityStateChanged))
attr title  "coord Y, vector"
vector 5  Net80211test.host[1]  coordZ:vector  ETV
attr interpolationmode  linear
attr source  zCoord(mobilityPos(mobilityStateChanged))
attr title  "coord Z, vector"
vector 6  Net80211test.host[2]  coordX:vector  ETV
attr interpolationmode  linear
attr source  xCoord(mobilityPos(mobilityStateChanged))
attr title  "coord X, vector"
vector 7  Net80211test.host[2]  coordY:vector  ETV
attr interpolationmode  linear
attr source  yCoord(mobilityPos(mobilityStateChanged))
attr title  "coord Y, vector"
vector 8  Net80211test.host[2]  coordZ:vector  ETV
attr interpolationmode  linear
attr source  zCoord(mobilityPos(mobilityStateChanged))
attr title  "coord Z, vector"
vector 9  Net80211test.host[3]  coordX:vector  ETV
attr interpolationmode  linear
attr source  xCoord(mobilityPos(mobilityStateChanged))
attr title  "coord X, vector"
vector 10  Net80211test.host[3]  coordY:vector  ETV
attr interpolationmode  linear
attr source  yCoord(mobilityPos(mobilityStateChanged))
attr title  "coord Y, vector"
vector 11  Net80211test.host[3]  coordZ:vector  ETV
attr interpolationmode  linear
attr source  zCoord(mobilityPos(mobilityStateChanged))
attr title  "coord Z, vector"
vector 12  Net80211test.host[4]  coordX:vector  ETV
attr interpolationmode  linear
attr source  xCoord(mobilityPos(mobilityStateChanged))
attr title  "coord X, vector"
vector 13  Net80211test.host[4]  coordY:vector  ETV
attr interpolationmode  linear
attr source  yCoord(mobilityPos(mobilityStateChanged))
attr title  "coord Y, vector"
vector 14  Net80211test.host[4]  coordZ:vector  ETV
attr interpolationmode  linear
attr source  zCoord(mobilityPos(mobilityStateChanged))
attr title  "coord Z, vector"
vector 24  Net80211test.host[0].wlan[0].radio  radioMode:vector  ETV
attr interpolationmode  sample-hold
attr source  radioModeChanged
attr title  "Radio mode, vector"
vector 27  Net80211test.host[0].wlan[0].radio  radioChannel:vector  ETV
attr interpolationmode  sample-hold
attr source  radioChannelChanged
attr title  "Radio channel, vector"
vector 48  Net80211test.host[1].wlan[0].radio  radioMode:vector  ETV
attr interpolationmode  sample-hold
attr source  radioModeChanged
attr title  "Radio mode, vector"
vector 51  Net80211test.host[1].wlan[0].radio  radioChannel:vector  ETV
attr interpolationmode  sample-hold
attr source  radioChannelChanged
attr title  "Radio channel, vector"
vector 72  Net80211test.host[2].wlan[0].radio  radioMode:vector  ETV
attr interpolationmode  sample-hold
attr source  radioModeChanged
attr title  "Radio mode, vector"
vector 75  Net80211test.host[2].wlan[0].radio  radioChannel:vector  ETV
attr interpolationmode  sample-hold
attr source  radioChannelChanged
attr title  "Radio channel, vector"
vector 96  Net80211test.host[3].wlan[0].radio  radioMode:vector  ETV
attr interpolationmode  sample-hold
attr source  radioModeChanged
attr title  "Radio mode, vector"
vector 99  Net80211test.host[3].wlan[0].radio  radioChannel:vector  ETV
attr interpolationmode  sample-hold
attr source  radioChannelChanged
attr title  "Radio channel, vector"
vector 120  Net80211test.host[4].wlan[0].radio  radioMode:vector  ETV
attr interpolationmode  sample-hold
attr source  radioModeChanged
attr title  "Radio mode, vector"
vector 123  Net80211test.host[4].wlan[0].radio  radioChannel:vector  ETV
attr interpolationmode  sample-hold
attr source  radioChannelChanged
attr title  "Radio channel, vector"
vector 25  Net80211test.host[0].wlan[0].radio  receptionState:vector  ETV
attr interpolationmode  sample-hold
attr source  receptionStateChanged
attr title  "Radio reception state, vector"
vector 49  Net80211test.host[1].wlan[0].radio  receptionState:vector  ETV
attr interpolationmode  sample-hold
attr source  receptionStateChanged
attr title  "Radio reception state, vector"
vector 73  Net80211test.host[2].wlan[0].radio  receptionState:vector  ETV
attr interpolationmode  sample-hold
attr source  receptionStateChanged
attr title  "Radio reception state, vector"
vector 97  Net80211test.host[3].wlan[0].radio  receptionState:vector  ETV
attr interpolationmode  sample-hold
attr source  receptionStateChanged
attr title  "Radio reception state, vector"
vector 121  Net80211test.host[4].wlan[0].radio  receptionState:vector  ETV
attr interpolationmode  sample-hold
attr source  receptionStateChanged
attr title  "Radio reception state, vector"
vector 104  Net80211test.host[4].pingApp[0]  pingTxSeq:vector  ETV
attr interpolationmode  none
attr title  "ping tx seq, vector"
vector 111  Net80211test.host[4].networkLayer.arp  sentReq:vector  ETV
attr title  "ARP request sent, vector"
vector 118  Net80211test.host[4].wlan[0].mac  rcvdPkFromHL:vector(packetBytes)  ETV
attr interpolationmode  none
attr source  packetReceivedFromUpper
attr title  "packets received from higher layer, vector(packetBytes)"
vector 117  Net80211test.host[4].wlan[0].mac  sentDownPk:vector(packetBytes)  ETV
attr interpolationmode  none
attr source  packetSentToLower
attr title  "packets sent to lower layer, vector(packetBytes)"
vector 122  Net80211test.host[4].wlan[0].radio  transmissionState:vector  ETV
attr interpolationmode  sample-hold
attr source  transmissionStateChanged
attr title  "Radio transmission state, vector"
vector 23  Net80211test.host[0].wlan[0].mac  rcvdPkFromLL:vector(packetBytes)  ETV
attr interpolationmode  none
attr source  packetReceivedFromLower
attr title  "packets received from lower layer, vector(packetBytes)"
vector 20  Net80211test.host[0].wlan[0].mac  passedUpPk:vector(packetBytes)  ETV
attr interpolationmode  none
attr source  packetSentToUpper
attr title  "packets passed to higher layer, vector(packetBytes)"
vector 16  Net80211test.host[0].networkLayer.arp  sentReply:vector  ETV
attr title  "ARP replies sent, vector"
vector 22  Net80211test.host[0].wlan[0].mac  rcvdPkFromHL:vector(packetBytes)  ETV
attr interpolationmode  none
attr source  packetReceivedFromUpper
attr title  "packets received from higher layer, vector(packetBytes)"
vector 21  Net80211test.host[0].wlan[0].mac  sentDownPk:vector(packetBytes)  ETV
attr interpolationmode  none
attr source  packetSentToLower
attr title  "packets sent to lower layer, vector(packetBytes)"
vector 26  Net80211test.host[0].wlan[0].radio  transmissionState:vector  ETV
attr interpolationmode  sample-hold
attr source  transmissionStateChanged
attr title  "Radio transmission state, vector"
vector 119  Net80211test.host[4].wlan[0].mac  rcvdPkFromLL:vector(packetBytes)  ETV
attr interpolationmode  none
attr source  packetReceivedFromLower
attr title  "packets received from lower layer, vector(packetBytes)"
vector 116  Net80211test.host[4].wlan[0].mac  passedUpPk:vector(packetBytes)  ETV
attr interpolationmode  none
attr source  packetSentToUpper
attr title  "packets passed to higher layer, vector(packetBytes)"
vector 105  Net80211test.host[4].pingApp[0]  pingRxSeq:vector  ETV
attr interpolationmode  none
attr title  "ping rx seq, vector"
vector 101  Net80211test.host[4].pingApp[0]  rtt:vector  ETV
attr interpolationmode  none
attr title  "ping round-trip time, vector"
attr unit  s
vector 32  Net80211test.host[1].pingApp[0]  pingTxSeq:vector  ETV
attr interpolationmode  none
attr title  "ping tx seq, vector"
vector 39  Net80211test.host[1].networkLayer.arp  sentReq:vector  ETV
attr title  "ARP request sent, vector"
vector 46  Net80211test.host[1].wlan[0].mac  rcvdPkFromHL:vector(packetBytes)  ETV
attr interpolationmode  none
attr source  packetReceivedFromUpper
attr title  "packets received from higher layer, vector(packetBytes)"
vector 45  Net80211test.host[1].wlan[0].mac  sentDownPk:vector(packetBytes)  ETV
attr interpolationmode  none
attr source  packetSentToLower
attr title  "packets sent to lower layer, vector(packetBytes)"
vector 50  Net80211test.host[1].wlan[0].radio  transmissionState:vector  ETV
attr interpolationmode  sample-hold
attr source  transmissionStateChanged
attr title  "Radio transmission state, vector"
vector 95  Net80211test.host[3].wlan[0].mac  rcvdPkFromLL:vector(packetBytes)  ETV
attr interpolationmode  none
attr source  packetReceivedFromLower
attr title  "packets received from lower layer, vector(packetBytes)"
vector 92  Net80211test.host[3].wlan[0].mac  passedUpPk:vector(packetBytes)  ETV
attr interpolationmode  none
attr source  packetSentToUpper
attr title  "packets passed to higher layer, vector(packetBytes)"
vector 71  Net80211test.host[2].wlan[0].mac  rcvdPkFromLL:vector(packetBytes)  ETV
attr interpolationmode  none
attr source  packetReceivedFromLower
attr title  "packets received from lower layer, vector(packetBytes)"
vector 68  Net80211test.host[2].wlan[0].mac  passedUpPk:vector(packetBytes)  ETV
attr interpolationmode  none
attr source  packetSentToUpper
attr title  "packets passed to higher layer, vector(packetBytes)"
vector 80  Net80211test.host[3].pingApp[0]  pingTxSeq:vector  ETV
attr interpolationmode  none
attr title  "ping tx seq, vector"
vector 87  Net80211test.host[3].networkLayer.arp  sentReq:vector  ETV
attr title  "ARP request sent, vector"
vector 94  Net80211test.host[3].wlan[0].mac  rcvdPkFromHL:vector(packetBytes)  ETV
attr interpolationmode  none
attr source  packetReceivedFromUpper
attr title  "packets received from higher layer, vector(packetBytes)"
vector 93  Net80211test.host[3].wlan[0].mac  sentDownPk:vector(packetBytes)  ETV
attr interpolationmode  none
attr source  packetSentToLower
attr title  "packets sent to lower layer, vector(packetBytes)"
vector 98  Net80211test.host[3].wlan[0].radio  transmissionState:vector  ETV
attr interpolationmode  sample-hold
attr source  transmissionStateChanged
attr title  "Radio transmission state, vector"
vector 47  Net80211test.host[1].wlan[0].mac  rcvdPkFromLL:vector(packetBytes)  ETV
attr interpolationmode  none
attr source  packetReceivedFromLower
attr title  "packets received from lower layer, vector(packetBytes)"
vector 44  Net80211test.host[1].wlan[0].mac  passedUpPk:vector(packetBytes)  ETV
attr interpolationmode  none
attr source  packetSentToUpper
attr title  "packets passed to higher layer, vector(packetBytes)"
vector 56  Net80211test.host[2].pingApp[0]  pingTxSeq:vector  ETV
attr interpolationmode  none
attr title  "ping tx seq, vector"
vector 63  Net80211test.host[2].networkLayer.arp  sentReq:vector  ETV
attr title  "ARP request sent, vector"
vector 70  Net80211test.host[2].wlan[0].mac  rcvdPkFromHL:vector(packetBytes)  ETV
attr interpolationmode  none
attr source  packetReceivedFromUpper
attr title  "packets received from higher layer, vector(packetBytes)"
vector 69  Net80211test.host[2].wlan[0].mac  sentDownPk:vector(packetBytes)  ETV
attr interpolationmode  none
attr source  packetSentToLower
attr title  "packets sent to lower layer, vector(packetBytes)"
vector 74  Net80211test.host[2].wlan[0].radio  transmissionState:vector  ETV
attr interpolationmode  sample-hold
attr source  transmissionStateChanged
attr title  "Radio transmission state, vector"
0	14139 2785 0 572 0 4.357560281494 80 250.21319906227 307.39507513692 23011.010522964 6641113.8230648
1	16924 2787 0 572 0 4.357560281494 80 376.12564462927 398.87392325327 30516.271136105 11643530.525892
2	19711 1673 0 572 0 4.357560281494 80 0 0 0 0
3	21384 2939 0 573 0 4.378770938245 86 0.068628648295999 79.862490980336 5141.4859149019 340817.16834985
4	24323 2937 0 573 0 4.378770938245 86 34.08765256982 58.71554640752 4203.470016116 208690.89986871
5	27260 1741 0 573 0 4.378770938245 86 0 0 0 0
6	29001 3053 0 575 0 4.400962727668 88 71.890868452165 93.036931541743 7153.0652859651 584051.36674202
7	32054 3051 0 575 0 4.400962727668 88 94.4355905056 170.73782983751 13079.508493342 1979758.4764947
8	35105 1830 0 575 0 4.400962727668 88 0 0 0 0
9	36935 2979 0 574 0 4.382454199383 87 59.17228830305 111.75612676889 6689.1501601792 534448.48031851
10	39914 3066 0 574 0 4.382454199383 87 66.822020025162 155.16429608688 8179.0575173431 818792.85496844
11	42980 1856 0 574 0 4.382454199383 87 0 0 0 0
12	44836 2863 0 571 0 4.338392009967 80 238.06048119441 326.79148478453 23892.583833779 7183751.9731169
13	47699 2869 0 571 0 4.338392009967 80 350.76366660673 374.21562904492 28580.570976509 10214722.520143
14	50568 1752 0 571 0 4.338392009967 80 0 0 0 0
16	52320 24 192 192 3.179582812382 3.179582812382 1 1 1 1 1
20	52344 77 189 469 3.179582812382 4.180204780192 3 64 120 304 32896
21	52421 127 200 496 3.179692812382 4.180568780192 5 14 120 332 33288
22	52548 77 195 475 3.179582812382 4.180204780192 3 64 120 304 32896
23	52625 152 189 526 3.179582812382 4.181554921463 6 14 120 346 33484
24	52777 258 0 504 0 4.181240780192 12 0 3 27 69
25	53035 537 0 525 0 4.181554921463 23 0 3 30 66
26	53572 480 201 504 3.179692812382 4.181240780192 20 0 2 20 30
27	54052 9 0 0 0 0 1 0 0 0 0
28	54061 1236 0 526 0 4.181554921463 54 0 3 78 206
32	55297 48 315 535 3.195254009217 4.195254009217 2 0 1 1 1
39	55345 48 317 536 3.195254009217 4.195254009217 2 1 1 2 2
44	55393 50 373 430 3.411103595495 3.860807857019 2 64 64 128 8192
45	55443 50 322 543 3.195254009217 4.195254009217 2 64 64 128 8192
46	55493 50 320 541 3.195254009217 4.195254009217 2 64 64 128 8192
47	55543 50 373 430 3.411103595495 3.860807857019 2 64 64 128 8192
48	55593 114 0 551 0 4.195304009217 6 0 3 12 30
49	55707 201 0 551 0 4.195304009217 9 0 3 11 23
50	55908 192 323 551 3.195254009217 4.195304009217 8 0 2 8 12
51	56100 9 0 0 0 0 1 0 0 0 0
52	56109 708 0 551 0 4.195304009217 32 0 3 32 88
56	56817 24 408 408 3.860757459886 3.860757459886 1 0 0 0 0
63	56841 24 410 410 3.860757459886 3.860757459886 1 1 1 1 1
68	56865 74 337 558 3.195304367437 4.19530444054 3 64 64 192 12288
69	56939 25 415 415 3.860757459886 3.860757459886 1 64 64 64 4096
70	56964 25 413 413 3.860757459886 3.860757459886 1 64 64 64 4096
71	56989 74 337 558 3.195304367437 4.19530444054 3 64 64 192 12288
72	57063 66 0 423 0 3.860807459886 4 0 3 7 17
73	57129 199 0 557 0 4.19530444054 9 0 3 14 32
74	57328 96 416 423 3.860757459886 3.860807459886 4 0 2 4 6
75	57424 9 0 0 0 0 1 0 0 0 0
76	57433 560 0 557 0 4.19530444054 26 0 3 16 44
80	57993 48 356 576 3.411053481512 4.411053481512 2 0 1 1 1
87	58041 24 358 358 3.411053481512 3.411053481512 1 1 1 1 1
92	58065 75 332 553 3.195304132509 4.195304124574 3 64 64 192 12288
93	58140 25 363 363 3.411053481512 3.411053481512 1 64 64 64 4096
94	58165 25 361 361 3.411053481512 3.411053481512 1 64 64 64 4096
95	58190 75 332 553 3.195304132509 4.195304124574 3 64 64 192 12288
96	58265 66 0 371 0 3.411103481512 4 0 3 7 17
97	58331 201 0 552 0 4.195304124574 9 0 3 14 32
98	58532 96 364 371 3.411053481512 3.411103481512 4 0 2 4 6
99	58628 9 0 0 0 0 1 0 0 0 0
100	58637 590 0 552 0 4.195304124574 26 0 3 16 44
101	59227 76 287 510 3.182353120969 4.181240850834 2 0.001708141303 0.002820411438 0.004528552741 1.0872467390616e-05
104	59303 50 172 453 3.179532709531 4.179532709531 2 0 1 1 1
105	59353 50 287 510 3.182353120969 4.181240850834 2 0 1 1 1
111	59403 25 174 174 3.179532709531 3.179532709531 1 1 1 1 1
116	59428 80 210 506 3.180140915235 4.181240850834 3 64 120 304 32896
117	59508 158 179 514 3.179532709531 4.181250850834 6 14 120 346 33484
118	59666 80 177 457 3.179532709531 4.179532709531 3 64 120 304 32896
119	59746 131 210 506 3.180140915235 4.181240850834 5 14 120 332 33288
120	59877 320 0 524 0 4.181554850834 14 0 3 32 82
121	60197 558 0 524 0 4.181554850834 23 0 3 27 57
122	60755 600 180 524 3.179532709531 4.181554850834 24 0 2 24 36
123	61355 10 0 0 0 0 1 0 0 0 0
124	61365 1386 0 524 0 4.181554850834 58 0 3 66 178
